         375
 BOX    15.535685336237503        15.535685336237503        15.535685336237503     
 O    7.7678426681187513        7.7678426681187513        7.7678426681187513     
 H    8.7097781033427513        7.7678426681187513        7.7678426681187513     
 H    7.4861655493152837        8.6666754472680232        7.7678426681187513     
 O    7.7678426681187513        7.7678426681187513        10.874979735366253     
 H    8.7097781033427513        7.7678426681187513        10.874979735366253     
 H    7.4861655493152837        8.6666754472680232        10.874979735366253     
 O    7.7678426681187513        7.7678426681187513        13.982116802613753     
 H    8.7097781033427513        7.7678426681187513        13.982116802613753     
 H    7.4861655493152837        8.6666754472680232        13.982116802613753     
 O    7.7678426681187513        7.7678426681187513        1.5535685336237413     
 H    8.7097781033427513        7.7678426681187513        1.5535685336237413     
 H    7.4861655493152837        8.6666754472680232        1.5535685336237413     
 O    7.7678426681187513        7.7678426681187513        4.6607056008712533     
 H    8.7097781033427513        7.7678426681187513        4.6607056008712533     
 H    7.4861655493152837        8.6666754472680232        4.6607056008712533     
 O    7.7678426681187513        10.874979735366253        7.7678426681187513     
 H    8.7097781033427513        10.874979735366253        7.7678426681187513     
 H    7.4861655493152837        11.773812514515525        7.7678426681187513     
 O    7.7678426681187513        10.874979735366253        10.874979735366253     
 H    8.7097781033427513        10.874979735366253        10.874979735366253     
 H    7.4861655493152837        11.773812514515525        10.874979735366253     
 O    7.7678426681187513        10.874979735366253        13.982116802613753     
 H    8.7097781033427513        10.874979735366253        13.982116802613753     
 H    7.4861655493152837        11.773812514515525        13.982116802613753     
 O    7.7678426681187513        10.874979735366253        1.5535685336237413     
 H    8.7097781033427513        10.874979735366253        1.5535685336237413     
 H    7.4861655493152837        11.773812514515525        1.5535685336237413     
 O    7.7678426681187513        10.874979735366253        4.6607056008712533     
 H    8.7097781033427513        10.874979735366253        4.6607056008712533     
 H    7.4861655493152837        11.773812514515525        4.6607056008712533     
 O    7.7678426681187513        13.982116802613753        7.7678426681187513     
 H    8.7097781033427513        13.982116802613753        7.7678426681187513     
 H    7.4861655493152837        14.880949581763019        7.7678426681187513     
 O    7.7678426681187513        13.982116802613753        10.874979735366253     
 H    8.7097781033427513        13.982116802613753        10.874979735366253     
 H    7.4861655493152837        14.880949581763019        10.874979735366253     
 O    7.7678426681187513        13.982116802613753        13.982116802613753     
 H    8.7097781033427513        13.982116802613753        13.982116802613753     
 H    7.4861655493152837        14.880949581763019        13.982116802613753     
 O    7.7678426681187513        13.982116802613753        1.5535685336237413     
 H    8.7097781033427513        13.982116802613753        1.5535685336237413     
 H    7.4861655493152837        14.880949581763019        1.5535685336237413     
 O    7.7678426681187513        13.982116802613753        4.6607056008712533     
 H    8.7097781033427513        13.982116802613753        4.6607056008712533     
 H    7.4861655493152837        14.880949581763019        4.6607056008712533     
 O    7.7678426681187513        1.5535685336237413        7.7678426681187513     
 H    8.7097781033427513        1.5535685336237413        7.7678426681187513     
 H    7.4861655493152837        2.4524013127730240        7.7678426681187513     
 O    7.7678426681187513        1.5535685336237413        10.874979735366253     
 H    8.7097781033427513        1.5535685336237413        10.874979735366253     
 H    7.4861655493152837        2.4524013127730240        10.874979735366253     
 O    7.7678426681187513        1.5535685336237413        13.982116802613753     
 H    8.7097781033427513        1.5535685336237413        13.982116802613753     
 H    7.4861655493152837        2.4524013127730240        13.982116802613753     
 O    7.7678426681187513        1.5535685336237413        1.5535685336237413     
 H    8.7097781033427513        1.5535685336237413        1.5535685336237413     
 H    7.4861655493152837        2.4524013127730240        1.5535685336237413     
 O    7.7678426681187513        1.5535685336237413        4.6607056008712533     
 H    8.7097781033427513        1.5535685336237413        4.6607056008712533     
 H    7.4861655493152837        2.4524013127730240        4.6607056008712533     
 O    7.7678426681187513        4.6607056008712533        7.7678426681187513     
 H    8.7097781033427513        4.6607056008712533        7.7678426681187513     
 H    7.4861655493152837        5.5595383800205234        7.7678426681187513     
 O    7.7678426681187513        4.6607056008712533        10.874979735366253     
 H    8.7097781033427513        4.6607056008712533        10.874979735366253     
 H    7.4861655493152837        5.5595383800205234        10.874979735366253     
 O    7.7678426681187513        4.6607056008712533        13.982116802613753     
 H    8.7097781033427513        4.6607056008712533        13.982116802613753     
 H    7.4861655493152837        5.5595383800205234        13.982116802613753     
 O    7.7678426681187513        4.6607056008712533        1.5535685336237413     
 H    8.7097781033427513        4.6607056008712533        1.5535685336237413     
 H    7.4861655493152837        5.5595383800205234        1.5535685336237413     
 O    7.7678426681187513        4.6607056008712533        4.6607056008712533     
 H    8.7097781033427513        4.6607056008712533        4.6607056008712533     
 H    7.4861655493152837        5.5595383800205234        4.6607056008712533     
 O    10.874979735366253        7.7678426681187513        7.7678426681187513     
 H    11.816915170590253        7.7678426681187513        7.7678426681187513     
 H    10.593302616562784        8.6666754472680232        7.7678426681187513     
 O    10.874979735366253        7.7678426681187513        10.874979735366253     
 H    11.816915170590253        7.7678426681187513        10.874979735366253     
 H    10.593302616562784        8.6666754472680232        10.874979735366253     
 O    10.874979735366253        7.7678426681187513        13.982116802613753     
 H    11.816915170590253        7.7678426681187513        13.982116802613753     
 H    10.593302616562784        8.6666754472680232        13.982116802613753     
 O    10.874979735366253        7.7678426681187513        1.5535685336237413     
 H    11.816915170590253        7.7678426681187513        1.5535685336237413     
 H    10.593302616562784        8.6666754472680232        1.5535685336237413     
 O    10.874979735366253        7.7678426681187513        4.6607056008712533     
 H    11.816915170590253        7.7678426681187513        4.6607056008712533     
 H    10.593302616562784        8.6666754472680232        4.6607056008712533     
 O    10.874979735366253        10.874979735366253        7.7678426681187513     
 H    11.816915170590253        10.874979735366253        7.7678426681187513     
 H    10.593302616562784        11.773812514515525        7.7678426681187513     
 O    10.874979735366253        10.874979735366253        10.874979735366253     
 H    11.816915170590253        10.874979735366253        10.874979735366253     
 H    10.593302616562784        11.773812514515525        10.874979735366253     
 O    10.874979735366253        10.874979735366253        13.982116802613753     
 H    11.816915170590253        10.874979735366253        13.982116802613753     
 H    10.593302616562784        11.773812514515525        13.982116802613753     
 O    10.874979735366253        10.874979735366253        1.5535685336237413     
 H    11.816915170590253        10.874979735366253        1.5535685336237413     
 H    10.593302616562784        11.773812514515525        1.5535685336237413     
 O    10.874979735366253        10.874979735366253        4.6607056008712533     
 H    11.816915170590253        10.874979735366253        4.6607056008712533     
 H    10.593302616562784        11.773812514515525        4.6607056008712533     
 O    10.874979735366253        13.982116802613753        7.7678426681187513     
 H    11.816915170590253        13.982116802613753        7.7678426681187513     
 H    10.593302616562784        14.880949581763019        7.7678426681187513     
 O    10.874979735366253        13.982116802613753        10.874979735366253     
 H    11.816915170590253        13.982116802613753        10.874979735366253     
 H    10.593302616562784        14.880949581763019        10.874979735366253     
 O    10.874979735366253        13.982116802613753        13.982116802613753     
 H    11.816915170590253        13.982116802613753        13.982116802613753     
 H    10.593302616562784        14.880949581763019        13.982116802613753     
 O    10.874979735366253        13.982116802613753        1.5535685336237413     
 H    11.816915170590253        13.982116802613753        1.5535685336237413     
 H    10.593302616562784        14.880949581763019        1.5535685336237413     
 O    10.874979735366253        13.982116802613753        4.6607056008712533     
 H    11.816915170590253        13.982116802613753        4.6607056008712533     
 H    10.593302616562784        14.880949581763019        4.6607056008712533     
 O    10.874979735366253        1.5535685336237413        7.7678426681187513     
 H    11.816915170590253        1.5535685336237413        7.7678426681187513     
 H    10.593302616562784        2.4524013127730240        7.7678426681187513     
 O    10.874979735366253        1.5535685336237413        10.874979735366253     
 H    11.816915170590253        1.5535685336237413        10.874979735366253     
 H    10.593302616562784        2.4524013127730240        10.874979735366253     
 O    10.874979735366253        1.5535685336237413        13.982116802613753     
 H    11.816915170590253        1.5535685336237413        13.982116802613753     
 H    10.593302616562784        2.4524013127730240        13.982116802613753     
 O    10.874979735366253        1.5535685336237413        1.5535685336237413     
 H    11.816915170590253        1.5535685336237413        1.5535685336237413     
 H    10.593302616562784        2.4524013127730240        1.5535685336237413     
 O    10.874979735366253        1.5535685336237413        4.6607056008712533     
 H    11.816915170590253        1.5535685336237413        4.6607056008712533     
 H    10.593302616562784        2.4524013127730240        4.6607056008712533     
 O    10.874979735366253        4.6607056008712533        7.7678426681187513     
 H    11.816915170590253        4.6607056008712533        7.7678426681187513     
 H    10.593302616562784        5.5595383800205234        7.7678426681187513     
 O    10.874979735366253        4.6607056008712533        10.874979735366253     
 H    11.816915170590253        4.6607056008712533        10.874979735366253     
 H    10.593302616562784        5.5595383800205234        10.874979735366253     
 O    10.874979735366253        4.6607056008712533        13.982116802613753     
 H    11.816915170590253        4.6607056008712533        13.982116802613753     
 H    10.593302616562784        5.5595383800205234        13.982116802613753     
 O    10.874979735366253        4.6607056008712533        1.5535685336237413     
 H    11.816915170590253        4.6607056008712533        1.5535685336237413     
 H    10.593302616562784        5.5595383800205234        1.5535685336237413     
 O    10.874979735366253        4.6607056008712533        4.6607056008712533     
 H    11.816915170590253        4.6607056008712533        4.6607056008712533     
 H    10.593302616562784        5.5595383800205234        4.6607056008712533     
 O    13.982116802613753        7.7678426681187513        7.7678426681187513     
 H    14.924052237837749        7.7678426681187513        7.7678426681187513     
 H    13.700439683810288        8.6666754472680232        7.7678426681187513     
 O    13.982116802613753        7.7678426681187513        10.874979735366253     
 H    14.924052237837749        7.7678426681187513        10.874979735366253     
 H    13.700439683810288        8.6666754472680232        10.874979735366253     
 O    13.982116802613753        7.7678426681187513        13.982116802613753     
 H    14.924052237837749        7.7678426681187513        13.982116802613753     
 H    13.700439683810288        8.6666754472680232        13.982116802613753     
 O    13.982116802613753        7.7678426681187513        1.5535685336237413     
 H    14.924052237837749        7.7678426681187513        1.5535685336237413     
 H    13.700439683810288        8.6666754472680232        1.5535685336237413     
 O    13.982116802613753        7.7678426681187513        4.6607056008712533     
 H    14.924052237837749        7.7678426681187513        4.6607056008712533     
 H    13.700439683810288        8.6666754472680232        4.6607056008712533     
 O    13.982116802613753        10.874979735366253        7.7678426681187513     
 H    14.924052237837749        10.874979735366253        7.7678426681187513     
 H    13.700439683810288        11.773812514515525        7.7678426681187513     
 O    13.982116802613753        10.874979735366253        10.874979735366253     
 H    14.924052237837749        10.874979735366253        10.874979735366253     
 H    13.700439683810288        11.773812514515525        10.874979735366253     
 O    13.982116802613753        10.874979735366253        13.982116802613753     
 H    14.924052237837749        10.874979735366253        13.982116802613753     
 H    13.700439683810288        11.773812514515525        13.982116802613753     
 O    13.982116802613753        10.874979735366253        1.5535685336237413     
 H    14.924052237837749        10.874979735366253        1.5535685336237413     
 H    13.700439683810288        11.773812514515525        1.5535685336237413     
 O    13.982116802613753        10.874979735366253        4.6607056008712533     
 H    14.924052237837749        10.874979735366253        4.6607056008712533     
 H    13.700439683810288        11.773812514515525        4.6607056008712533     
 O    13.982116802613753        13.982116802613753        7.7678426681187513     
 H    14.924052237837749        13.982116802613753        7.7678426681187513     
 H    13.700439683810288        14.880949581763019        7.7678426681187513     
 O    13.982116802613753        13.982116802613753        10.874979735366253     
 H    14.924052237837749        13.982116802613753        10.874979735366253     
 H    13.700439683810288        14.880949581763019        10.874979735366253     
 O    13.982116802613753        13.982116802613753        13.982116802613753     
 H    14.924052237837749        13.982116802613753        13.982116802613753     
 H    13.700439683810288        14.880949581763019        13.982116802613753     
 O    13.982116802613753        13.982116802613753        1.5535685336237413     
 H    14.924052237837749        13.982116802613753        1.5535685336237413     
 H    13.700439683810288        14.880949581763019        1.5535685336237413     
 O    13.982116802613753        13.982116802613753        4.6607056008712533     
 H    14.924052237837749        13.982116802613753        4.6607056008712533     
 H    13.700439683810288        14.880949581763019        4.6607056008712533     
 O    13.982116802613753        1.5535685336237413        7.7678426681187513     
 H    14.924052237837749        1.5535685336237413        7.7678426681187513     
 H    13.700439683810288        2.4524013127730240        7.7678426681187513     
 O    13.982116802613753        1.5535685336237413        10.874979735366253     
 H    14.924052237837749        1.5535685336237413        10.874979735366253     
 H    13.700439683810288        2.4524013127730240        10.874979735366253     
 O    13.982116802613753        1.5535685336237413        13.982116802613753     
 H    14.924052237837749        1.5535685336237413        13.982116802613753     
 H    13.700439683810288        2.4524013127730240        13.982116802613753     
 O    13.982116802613753        1.5535685336237413        1.5535685336237413     
 H    14.924052237837749        1.5535685336237413        1.5535685336237413     
 H    13.700439683810288        2.4524013127730240        1.5535685336237413     
 O    13.982116802613753        1.5535685336237413        4.6607056008712533     
 H    14.924052237837749        1.5535685336237413        4.6607056008712533     
 H    13.700439683810288        2.4524013127730240        4.6607056008712533     
 O    13.982116802613753        4.6607056008712533        7.7678426681187513     
 H    14.924052237837749        4.6607056008712533        7.7678426681187513     
 H    13.700439683810288        5.5595383800205234        7.7678426681187513     
 O    13.982116802613753        4.6607056008712533        10.874979735366253     
 H    14.924052237837749        4.6607056008712533        10.874979735366253     
 H    13.700439683810288        5.5595383800205234        10.874979735366253     
 O    13.982116802613753        4.6607056008712533        13.982116802613753     
 H    14.924052237837749        4.6607056008712533        13.982116802613753     
 H    13.700439683810288        5.5595383800205234        13.982116802613753     
 O    13.982116802613753        4.6607056008712533        1.5535685336237413     
 H    14.924052237837749        4.6607056008712533        1.5535685336237413     
 H    13.700439683810288        5.5595383800205234        1.5535685336237413     
 O    13.982116802613753        4.6607056008712533        4.6607056008712533     
 H    14.924052237837749        4.6607056008712533        4.6607056008712533     
 H    13.700439683810288        5.5595383800205234        4.6607056008712533     
 O    1.5535685336237413        7.7678426681187513        7.7678426681187513     
 H    2.4955039688477454        7.7678426681187513        7.7678426681187513     
 H    1.2718914148202880        8.6666754472680232        7.7678426681187513     
 O    1.5535685336237413        7.7678426681187513        10.874979735366253     
 H    2.4955039688477454        7.7678426681187513        10.874979735366253     
 H    1.2718914148202880        8.6666754472680232        10.874979735366253     
 O    1.5535685336237413        7.7678426681187513        13.982116802613753     
 H    2.4955039688477454        7.7678426681187513        13.982116802613753     
 H    1.2718914148202880        8.6666754472680232        13.982116802613753     
 O    1.5535685336237413        7.7678426681187513        1.5535685336237413     
 H    2.4955039688477454        7.7678426681187513        1.5535685336237413     
 H    1.2718914148202880        8.6666754472680232        1.5535685336237413     
 O    1.5535685336237413        7.7678426681187513        4.6607056008712533     
 H    2.4955039688477454        7.7678426681187513        4.6607056008712533     
 H    1.2718914148202880        8.6666754472680232        4.6607056008712533     
 O    1.5535685336237413        10.874979735366253        7.7678426681187513     
 H    2.4955039688477454        10.874979735366253        7.7678426681187513     
 H    1.2718914148202880        11.773812514515525        7.7678426681187513     
 O    1.5535685336237413        10.874979735366253        10.874979735366253     
 H    2.4955039688477454        10.874979735366253        10.874979735366253     
 H    1.2718914148202880        11.773812514515525        10.874979735366253     
 O    1.5535685336237413        10.874979735366253        13.982116802613753     
 H    2.4955039688477454        10.874979735366253        13.982116802613753     
 H    1.2718914148202880        11.773812514515525        13.982116802613753     
 O    1.5535685336237413        10.874979735366253        1.5535685336237413     
 H    2.4955039688477454        10.874979735366253        1.5535685336237413     
 H    1.2718914148202880        11.773812514515525        1.5535685336237413     
 O    1.5535685336237413        10.874979735366253        4.6607056008712533     
 H    2.4955039688477454        10.874979735366253        4.6607056008712533     
 H    1.2718914148202880        11.773812514515525        4.6607056008712533     
 O    1.5535685336237413        13.982116802613753        7.7678426681187513     
 H    2.4955039688477454        13.982116802613753        7.7678426681187513     
 H    1.2718914148202880        14.880949581763019        7.7678426681187513     
 O    1.5535685336237413        13.982116802613753        10.874979735366253     
 H    2.4955039688477454        13.982116802613753        10.874979735366253     
 H    1.2718914148202880        14.880949581763019        10.874979735366253     
 O    1.5535685336237413        13.982116802613753        13.982116802613753     
 H    2.4955039688477454        13.982116802613753        13.982116802613753     
 H    1.2718914148202880        14.880949581763019        13.982116802613753     
 O    1.5535685336237413        13.982116802613753        1.5535685336237413     
 H    2.4955039688477454        13.982116802613753        1.5535685336237413     
 H    1.2718914148202880        14.880949581763019        1.5535685336237413     
 O    1.5535685336237413        13.982116802613753        4.6607056008712533     
 H    2.4955039688477454        13.982116802613753        4.6607056008712533     
 H    1.2718914148202880        14.880949581763019        4.6607056008712533     
 O    1.5535685336237413        1.5535685336237413        7.7678426681187513     
 H    2.4955039688477454        1.5535685336237413        7.7678426681187513     
 H    1.2718914148202880        2.4524013127730240        7.7678426681187513     
 O    1.5535685336237413        1.5535685336237413        10.874979735366253     
 H    2.4955039688477454        1.5535685336237413        10.874979735366253     
 H    1.2718914148202880        2.4524013127730240        10.874979735366253     
 O    1.5535685336237413        1.5535685336237413        13.982116802613753     
 H    2.4955039688477454        1.5535685336237413        13.982116802613753     
 H    1.2718914148202880        2.4524013127730240        13.982116802613753     
 O    1.5535685336237413        1.5535685336237413        1.5535685336237413     
 H    2.4955039688477454        1.5535685336237413        1.5535685336237413     
 H    1.2718914148202880        2.4524013127730240        1.5535685336237413     
 O    1.5535685336237413        1.5535685336237413        4.6607056008712533     
 H    2.4955039688477454        1.5535685336237413        4.6607056008712533     
 H    1.2718914148202880        2.4524013127730240        4.6607056008712533     
 O    1.5535685336237413        4.6607056008712533        7.7678426681187513     
 H    2.4955039688477454        4.6607056008712533        7.7678426681187513     
 H    1.2718914148202880        5.5595383800205234        7.7678426681187513     
 O    1.5535685336237413        4.6607056008712533        10.874979735366253     
 H    2.4955039688477454        4.6607056008712533        10.874979735366253     
 H    1.2718914148202880        5.5595383800205234        10.874979735366253     
 O    1.5535685336237413        4.6607056008712533        13.982116802613753     
 H    2.4955039688477454        4.6607056008712533        13.982116802613753     
 H    1.2718914148202880        5.5595383800205234        13.982116802613753     
 O    1.5535685336237413        4.6607056008712533        1.5535685336237413     
 H    2.4955039688477454        4.6607056008712533        1.5535685336237413     
 H    1.2718914148202880        5.5595383800205234        1.5535685336237413     
 O    1.5535685336237413        4.6607056008712533        4.6607056008712533     
 H    2.4955039688477454        4.6607056008712533        4.6607056008712533     
 H    1.2718914148202880        5.5595383800205234        4.6607056008712533     
 O    4.6607056008712533        7.7678426681187513        7.7678426681187513     
 H    5.6026410360952523        7.7678426681187513        7.7678426681187513     
 H    4.3790284820677821        8.6666754472680232        7.7678426681187513     
 O    4.6607056008712533        7.7678426681187513        10.874979735366253     
 H    5.6026410360952523        7.7678426681187513        10.874979735366253     
 H    4.3790284820677821        8.6666754472680232        10.874979735366253     
 O    4.6607056008712533        7.7678426681187513        13.982116802613753     
 H    5.6026410360952523        7.7678426681187513        13.982116802613753     
 H    4.3790284820677821        8.6666754472680232        13.982116802613753     
 O    4.6607056008712533        7.7678426681187513        1.5535685336237413     
 H    5.6026410360952523        7.7678426681187513        1.5535685336237413     
 H    4.3790284820677821        8.6666754472680232        1.5535685336237413     
 O    4.6607056008712533        7.7678426681187513        4.6607056008712533     
 H    5.6026410360952523        7.7678426681187513        4.6607056008712533     
 H    4.3790284820677821        8.6666754472680232        4.6607056008712533     
 O    4.6607056008712533        10.874979735366253        7.7678426681187513     
 H    5.6026410360952523        10.874979735366253        7.7678426681187513     
 H    4.3790284820677821        11.773812514515525        7.7678426681187513     
 O    4.6607056008712533        10.874979735366253        10.874979735366253     
 H    5.6026410360952523        10.874979735366253        10.874979735366253     
 H    4.3790284820677821        11.773812514515525        10.874979735366253     
 O    4.6607056008712533        10.874979735366253        13.982116802613753     
 H    5.6026410360952523        10.874979735366253        13.982116802613753     
 H    4.3790284820677821        11.773812514515525        13.982116802613753     
 O    4.6607056008712533        10.874979735366253        1.5535685336237413     
 H    5.6026410360952523        10.874979735366253        1.5535685336237413     
 H    4.3790284820677821        11.773812514515525        1.5535685336237413     
 O    4.6607056008712533        10.874979735366253        4.6607056008712533     
 H    5.6026410360952523        10.874979735366253        4.6607056008712533     
 H    4.3790284820677821        11.773812514515525        4.6607056008712533     
 O    4.6607056008712533        13.982116802613753        7.7678426681187513     
 H    5.6026410360952523        13.982116802613753        7.7678426681187513     
 H    4.3790284820677821        14.880949581763019        7.7678426681187513     
 O    4.6607056008712533        13.982116802613753        10.874979735366253     
 H    5.6026410360952523        13.982116802613753        10.874979735366253     
 H    4.3790284820677821        14.880949581763019        10.874979735366253     
 O    4.6607056008712533        13.982116802613753        13.982116802613753     
 H    5.6026410360952523        13.982116802613753        13.982116802613753     
 H    4.3790284820677821        14.880949581763019        13.982116802613753     
 O    4.6607056008712533        13.982116802613753        1.5535685336237413     
 H    5.6026410360952523        13.982116802613753        1.5535685336237413     
 H    4.3790284820677821        14.880949581763019        1.5535685336237413     
 O    4.6607056008712533        13.982116802613753        4.6607056008712533     
 H    5.6026410360952523        13.982116802613753        4.6607056008712533     
 H    4.3790284820677821        14.880949581763019        4.6607056008712533     
 O    4.6607056008712533        1.5535685336237413        7.7678426681187513     
 H    5.6026410360952523        1.5535685336237413        7.7678426681187513     
 H    4.3790284820677821        2.4524013127730240        7.7678426681187513     
 O    4.6607056008712533        1.5535685336237413        10.874979735366253     
 H    5.6026410360952523        1.5535685336237413        10.874979735366253     
 H    4.3790284820677821        2.4524013127730240        10.874979735366253     
 O    4.6607056008712533        1.5535685336237413        13.982116802613753     
 H    5.6026410360952523        1.5535685336237413        13.982116802613753     
 H    4.3790284820677821        2.4524013127730240        13.982116802613753     
 O    4.6607056008712533        1.5535685336237413        1.5535685336237413     
 H    5.6026410360952523        1.5535685336237413        1.5535685336237413     
 H    4.3790284820677821        2.4524013127730240        1.5535685336237413     
 O    4.6607056008712533        1.5535685336237413        4.6607056008712533     
 H    5.6026410360952523        1.5535685336237413        4.6607056008712533     
 H    4.3790284820677821        2.4524013127730240        4.6607056008712533     
 O    4.6607056008712533        4.6607056008712533        7.7678426681187513     
 H    5.6026410360952523        4.6607056008712533        7.7678426681187513     
 H    4.3790284820677821        5.5595383800205234        7.7678426681187513     
 O    4.6607056008712533        4.6607056008712533        10.874979735366253     
 H    5.6026410360952523        4.6607056008712533        10.874979735366253     
 H    4.3790284820677821        5.5595383800205234        10.874979735366253     
 O    4.6607056008712533        4.6607056008712533        13.982116802613753     
 H    5.6026410360952523        4.6607056008712533        13.982116802613753     
 H    4.3790284820677821        5.5595383800205234        13.982116802613753     
 O    4.6607056008712533        4.6607056008712533        1.5535685336237413     
 H    5.6026410360952523        4.6607056008712533        1.5535685336237413     
 H    4.3790284820677821        5.5595383800205234        1.5535685336237413     
 O    4.6607056008712533        4.6607056008712533        4.6607056008712533     
 H    5.6026410360952523        4.6607056008712533        4.6607056008712533     
 H    4.3790284820677821        5.5595383800205234        4.6607056008712533     
