         375
 BOX    15.535685336237503        15.535685336237503        15.535685336237503     
 O    5.2531529973115969        9.9257364840572890        4.2201376276067277     
 H    6.2066380016671401        10.177279911914294        4.3429804264819403     
 H    4.9234489859763260        10.515882169149869        3.4781066602757207     
 O    6.2934237395995511        9.1483389712924410        7.9752320132495491     
 H    6.7243857144874122        9.4678684281991998        7.1058454117686161     
 H    5.4986656909959217        9.7147233733972485        8.1246922405143511     
 O    7.8672965868785081        6.3094615723007621        14.579609425748210     
 H    7.3325850278538658        7.1034533161519731        14.630167411244363     
 H    8.0045414730488016        6.2328602154903274        13.623913028409572     
 O    7.3041642829677444        6.9630995547989718        2.8377539622556816     
 H    7.5487779098423893        7.8696140344494463        2.5761226236407637     
 H    6.3091645184466243        7.0844734608201003        2.8682102927456858     
 O    11.169023286862583        7.6599965037680358        2.4651606814392339     
 H    10.678750129988970        6.8390996553915517        2.5136740865584430     
 H    11.020187612932897        7.9225256507309476        1.5248588720611711     
 O    5.1403965156630180        11.652517952660435        6.5497311204915318     
 H    5.3307820370291692        11.290375151811091        5.6870503038549094     
 H    6.0350301453531170        11.913187926655198        6.8352395610655812     
 O    9.6701176426890729        9.6706749205949389        10.288172093208363     
 H    8.9082511533919870        8.9872810308412348        10.107697265250243     
 H    9.5108156197646885        10.583855262252614        9.8989511620344626     
 O    9.0451794039687865        10.325653590614442        12.930939447608344     
 H    9.8204846130968022        10.213481875467854        13.476690175253578     
 H    9.3266300580962280        10.047520955526691        12.036089531045812     
 O    7.2867368201752134        12.042922578359130        2.7309932962981458     
 H    7.2584834934895470        12.851203046401125        3.2553891932254833     
 H    8.2248290387154643        11.735304850478407        2.6915754530345937     
 O    7.0517030733293442        14.394973964447093        4.3316631778902384     
 H    6.5606132212625434        14.398551572123100        5.1955743768524094     
 H    7.8829281566894407        14.205065712898696        4.6910509879599562     
 O    7.7945795354969007        12.456452086754586        6.6341197695906304     
 H    7.7841777384638018        13.357252964931808        7.0246194635987589     
 H    8.6860007394395851        12.311882781548846        6.1663206125952952     
 O    7.8446344290382202        13.575599700622870        10.546790981516436     
 H    8.5230164978703815        14.131326820014214        10.896771642240052     
 H    7.1580571289799106        14.109379973593228        10.067423838483251     
 O    10.591481706723282        13.447497110670236        13.382523442293111     
 H    11.535668628812198        13.717983695510217        13.449436644177789     
 H    10.595248584797629        12.518667768619329        13.570763037018695     
 O    7.4350037046997102        10.153837925918333        15.033560974198062     
 H    7.9272519239731007        10.235094077663447        14.225317804886863     
 H    7.1068574189594482        11.006548910906400        15.136355317630512     
 O    6.3628463576568928        12.620967281004811       0.12604772411634857     
 H    6.9507254587888054        13.324761065332744      -0.13117244889444282     
 H    6.5805900185677553        12.426461895955763        1.0781141954795437     
 O    6.4909997033707478        3.9803765282206354        8.4892392344758854     
 H    6.3684650738503512        4.8246417684222314        8.1051499603968349     
 H    6.0305148777036974        3.4215414957465948        7.8688227784526132     
 O    9.1063214720635930        3.5629618004661530        9.3498222835743086     
 H    9.6836096903556896        3.2627695664000407        8.6395408833230274     
 H    8.2265453991697388        3.4426881724378910        8.9452552880437093     
 O    3.2996011644984331        1.2448365916602901        14.749511271829135     
 H    3.3855966951810750        1.9596823870627926        14.092089235801270     
 H    3.8455145215099802       0.47638869605461664        14.658585620953241     
 O    7.9972975428997177        14.596647713670093        14.848607016653686     
 H    8.8935838426872227        14.383254435123128        14.502048552001559     
 H    7.9999960137329404        15.417012548128486        15.270938984844509     
 O    2.6368011015023050        15.033562889962747        4.7082497869104518     
 H    2.5775519977844046        15.980841196079307        4.8292546556967659     
 H    3.3853868143916594        14.875054299374286        4.1102760772441016     
 O    7.6725506325480595        7.5334334473493731        9.6533098640334227     
 H    7.1751372382657959        8.1446641421102726        9.0532778549426567     
 H    8.1769851479795985        6.9029878269013976        9.1106297974994614     
 O    7.4009450172258662        5.7872348987073945        11.801788419736907     
 H    7.0314906845294720        5.0055909284820803        11.452284046373405     
 H    7.5364124424097838        6.4500980459746184        11.148772070512988     
 O    6.2721702402247876        4.2101939652423024        15.243042198953555     
 H    5.4618146854760914        4.4782323472957506        14.766679306355787     
 H    6.9639582832696298        4.8029378997789802        14.944454852964464     
 O    9.7178446724993162        5.3629266592556339        1.8958221243690243     
 H    8.8858251117847775        4.9496061431281113        1.9812854919402214     
 H    9.8013936308848706        5.8383789054485593        1.0118217777460343     
 O    10.911100115008665        3.4300860880886015        4.0367485461979919     
 H    11.739227384277306        3.0235620408771289        3.8089961846308014     
 H    10.551407761655360        3.5905381346708185        3.1253748181431562     
 O    10.675576651680725        9.2112484630126570        5.0498552315230008     
 H    11.218486396977683        8.9500778304652950        5.8004924155745430     
 H    10.884692503903580        8.6787686565318332        4.2737987959304444     
 O    12.197723295911926        8.6854960601853168        9.8606338408722305     
 H    12.071898740298961        7.7663395660996972        10.188062140715566     
 H    11.325898917155472        9.1758185290030241        9.8398921418447198     
 O    10.211078672636027        8.3391146948537322       0.16732654749861281     
 H    9.5648557586371226        8.8006907763382003       0.69231885244032831     
 H    9.7012421907003201        7.6805663545625524      -0.24676851435467617     
 O    13.611075044159287        6.8109437898792224        1.8008954582471066     
 H    12.753204163945950        7.0764131404025798        2.0777005838503690     
 H    14.097863904121258        7.3179506166726656        2.4520308970805753     
 O    14.782546291861307        4.4547216959829772        2.3249819992596366     
 H    14.268122799892616        5.2373729745279149        2.2041169960756668     
 H    15.070145016231912        4.3576879099121051        3.2160032292724590     
 O    10.267299643407092        11.938210752935941        5.3406433856766604     
 H    10.367668716634324        12.365124513190622        4.5311469554827841     
 H    10.505273697562780        11.005048734558725        5.1961708698414286     
 O    12.227950941780175        8.7648857383066829        7.2675989744700296     
 H    11.999055186440492        8.5295957029262954        8.1814562076003892     
 H    12.893755514462667        9.4505926252887225        7.3252712750916196     
 O    11.710282436510560        10.179478906540478        13.997071022929440     
 H    11.649566120420927        9.3523274368209268        14.467812523757980     
 H    12.617983245306565        10.146959576655199        13.696068068158212     
 O    8.1052620681913581        9.3831452105014517        1.9690539710588308     
 H    7.6340929193690057        9.9924381759208352        2.4950913221717461     
 H    7.8843761408984747        9.7741043504630731        1.1008443371269323     
 O    10.066599083365444        12.414052360639753        2.3749123736057647     
 H    10.677862519279358        11.969951576321982        1.8036150181739616     
 H    10.180160168279814        13.324243574835069        2.2876523315252726     
 O    7.6863121917510870        15.166187649281198        7.3182043209212750     
 H    8.4208915030595346        15.731565598433095        7.2053260858958073     
 H    7.4046239096597501        15.161293216537894        8.2629548253887872     
 O    9.3342251500486064        12.053422115245802        8.9505712143162075     
 H    8.7170201588063332        12.544510987317423        9.4930866044714115     
 H    8.8604371330422644        12.081443870273491        8.1565712761338460     
 O    12.284255226878665        11.327311660379888        1.2026168543047178     
 H    12.732403586886436        12.138698797805349        1.0728158785373139     
 H    12.180461766746944        11.077057313114171       0.28507328141248034     
 O    12.753502304778573       0.66969417454740088       0.66674152626711047     
 H    12.783633286648259      -0.20143584632976599       0.31585783419629138     
 H    12.524524259917785        1.3342591684540972       -3.9446990127714750E-002
 O    10.369111104369148        15.447539776398676        1.7526675306615012     
 H    11.267731613454250        15.673483003976141        1.6378737246581265     
 H    10.125804225723407        15.445207796638128        2.6887907570077014     
 O    10.028197868847375        1.3429811637637552        7.4964219090688990     
 H    9.8789065048276701        1.6442414553990874        6.5891831874397306     
 H    10.282590905314198       0.43256452125835482        7.4172102359970067     
 O    8.4902397042011124        2.2616703111176011        11.887043918413445     
 H    9.0316229586310737        1.4706562639588652        11.809055282131505     
 H    8.6992110727775422        2.7487913090358229        11.163412479009516     
 O    6.0969115447536018        1.8582988156106033        13.484858076496828     
 H    6.0148845680947574        2.6909609347217143        13.945481723927680     
 H    7.0268287296797531        1.6860243513954951        13.499284873747152     
 O    12.293124245233564        2.1790489810339473        13.977675171573702     
 H    11.442016661315561        2.5331018777452803        14.199358795766116     
 H    12.861284550177210        2.9280735067348020        14.097998745469251     
 O    13.192960857160170        2.3197212669887337        2.7454699784704819     
 H    13.154028276608106        1.9065232827219860        1.8616797824172620     
 H    13.714871141018424        3.1174413836919901        2.6982249457887493     
 O    9.7125064516397384        6.1669673932187328        8.3378051510744591     
 H    10.118924419147815        6.0068829337308465        7.4851394982352737     
 H    9.3649156967960643        5.3990348483843116        8.6616869974623736     
 O    11.124055058501384        6.2935927391228681        11.108533146090400     
 H    11.647008119770042        5.4612417882575075        11.049611817920187     
 H    10.479230583122359        6.2043790485220196        10.434868418846104     
 O    9.6439625527226749        3.1611964769354413        14.171144427769272     
 H    9.1551646290473574        3.0399246778183269        13.371126549846805     
 H    9.9357376739271999        4.0569916848657384        14.118003181731538     
 O    14.896559085800755        3.5659804455097399        15.016674831660497     
 H    14.933798328323634        4.0939150565774085        15.783496578808226     
 H    15.588182562325377        3.8989241885827695        14.386019110427474     
 O    10.720651998161298        5.4823654187452249        5.8053669444299079     
 H    10.612204434259285        4.7146902405210849        5.2378369416697428     
 H    11.637454308835308        5.6730017568333082        5.9351625044514646     
 O   0.58544424348573343        9.6909867952831075        8.7741404103590526     
 H   0.47130295819271256        9.3340605576933218        9.6390952983976472     
 H  -0.10040620858337961        10.365527728595692        8.5180567380676671     
 O    10.897420533173088        6.1414551826884631        13.870416331015013     
 H    10.828300183197340        6.1442049842061479        12.918754730334415     
 H    11.536362276352232        6.8299536388101103        14.064598799501688     
 O    13.157007058996131        7.5126833516403657        14.739412645932509     
 H    14.020853703232014        7.2159206051929896        14.352980948454817     
 H    13.222405357754132        7.3347044704895890        15.683761197904392     
 O    14.626111087844031        8.1293797595500230        3.9866291873671416     
 H    15.575471015838637        7.9989076638471905        4.2379819360250099     
 H    14.341915970017725        9.0814544471412741        3.9556189929793915     
 O    13.505984236577410        6.7128020497156680        6.1472855803048301     
 H    13.875088842469147        7.0609312407136695        5.3429986179290259     
 H    13.118520362234392        7.4376061149849528        6.5712461205874044     
 O    13.286733825226344        10.718784353317782        3.7589856470869303     
 H    13.240123833011099        11.588219704512913        4.1640608399091761     
 H    12.699607623684551        10.755441795580884        3.0689834372383764     
 O    13.807514227211001        10.763935430927273        7.7289799626085154     
 H    13.122635110145813        11.260251334892134        8.1731660735689040     
 H    13.884231126435264        11.231745240032364        6.9039713318967726     
 O    13.530056426534848        14.387530108880490        13.743677121520506     
 H    13.894222544657472        13.963192799573802        12.939164723187005     
 H    13.915916835920974        15.287273160151720        13.735893333657520     
 O   0.27311374763227980        12.095238474535048        14.503657646051638     
 H   0.88767696413670238        12.390339041691885        15.178335559045820     
 H   0.11567323262270192        12.767980377506907        13.882501535607698     
 O   0.67989189565906039        11.000544030985781        3.2028543749872274     
 H  -0.19248210266733176        10.640259828297662        3.3272978341684420     
 H   0.52082435444616737        11.913536381486233        2.9246056048519420     
 O    13.881724881793513        13.449570463973634        5.0857408485216329     
 H    13.225097249353258        13.630310545622653        5.7038337359537339     
 H    14.647769368973323        13.435950106717291        5.6266297082020174     
 O    12.086702730679873        12.626403073564239        9.0009636036239122     
 H    12.386301824172527        12.610822634330431        9.9119024887384537     
 H    11.112587385050512        12.405800640343999        8.9006576456912772     
 O   0.37185614379947057        14.059458988726718        3.1418719813138787     
 H   -3.4737482241000629E-002   14.024918684441442        3.9558349334200433     
 H   0.61078927369602276        14.985191975603485        3.1474693608274489     
 O    13.950497857477595        13.502814861501856        1.1540252729857410     
 H    14.481777781343627        13.566692396690943       0.32642323845644011     
 H    14.583445673022426        13.619139738800120        1.8625463123700321     
 O    10.052842292644378        14.738974231092456        4.4037074697627068     
 H    9.6614507575950128        15.567168339911920        4.7008153269222284     
 H    10.715475739490079        14.562062815059454        5.1079184383115308     
 O    11.495416744450369        14.555507323885749        6.7928795852418400     
 H    11.589167792816456        13.951443004636630        7.5738968633153645     
 H    12.196573305825181        15.156811918081242        6.9583276034033821     
 O    9.7291030625046577        15.376547703896820        11.602818851690097     
 H    10.569848132027586        15.772438826672387        11.437204535606361     
 H    9.9724564635070063        14.791207001247061        12.390780517667316     
 O    15.112406078567494        2.4266172769121619        11.008265098100459     
 H    16.066104011017774        2.5346687735011071        11.065389067666553     
 H    14.967584681034046        2.5785166049500163        10.057023597652778     
 O    14.701054207417503        1.3436526338531201        5.0953220320160710     
 H    15.150142634208008        2.2574764126583187        5.0637688073642177     
 H    14.245870973004655        1.2235271216362986        4.2377336633540805     
 O    14.980938106519190        2.7552036040291967        8.1436588345242136     
 H    15.937384269031565        2.6257854190549956        8.0366386883697434     
 H    14.528813140600521        2.0367144498946415        7.6293697909708014     
 O   0.63535684516945290        6.5401510217456735        10.684034894613211     
 H   0.14579351660574127        7.2357767538710549        11.074838829471142     
 H    4.0059906905119402E-002   6.1530275451504357        10.046865349348415     
 O    12.709716175652250        4.2440750122133810        10.996180256013517     
 H    13.560184131374442        3.7838787224997943        10.952961207747645     
 H    12.080347218847956        3.5292817153906126        11.056973886947482     
 O    1.2287942793700117        4.5178361652551207        13.382028599896540     
 H    1.3804477105343724        4.0165086301788797        12.588878178668036     
 H    2.1455706425601102        4.7706708406719835        13.656561690294041     
 O   0.43286851743886307        3.6647372636330044        4.8633089500020024     
 H   0.85800262038696751        4.3884011452483929        5.2225762478628530     
 H    1.0844965624072205        3.1008733003650426        4.4841862800231969     
 O    15.090039632267489        5.5925373202099520        8.3436577247586214     
 H    14.952118351626606        4.6447321455877031        8.1110331751308475     
 H    14.735116268231002        6.0049759066462567        7.5311208133990677     
 O    2.2417142836000021        11.748409914937273        7.4087028667844672     
 H    1.8345339992921879        11.014530457777889        7.8992549770255840     
 H    2.6412792354533736        11.284979104765952        6.6205360504808981     
 O    1.8442532973927130        8.9411193569807370        13.794617964825939     
 H    1.4224957414211037        9.7124962277644205        13.474562841896130     
 H    1.8212692985848884        9.0539214425153034        14.748165947876299     
 O   0.17139102875372322        6.8826496478368480        14.253874020142090     
 H   0.76377855867060462        7.5667463208368373        13.962665086268339     
 H   0.43439167280476615        6.0399350753925862        13.881533481123553     
 O    3.0048969574882545        5.8039357897393646        3.1738497727676513     
 H    2.5173904454059670        5.7602059137014407        2.3510020459182619     
 H    2.5684322725935140        6.4331960426480688        3.8070517544752702     
 O    1.5799102072659599        7.9046375131033582        4.6648900927781929     
 H    1.5701311137252438        7.3471853974598460        5.4623588908204450     
 H    1.8958462131346796        8.7538507350304524        4.9230200218312623     
 O   0.29347182857624560        14.706853671703181        8.8043331564321274     
 H   0.56615255165797773        14.458109647089056        7.9447969518396384     
 H    1.1189709680399165        15.063091598247807        9.2008348869699930     
 O    14.371930915963461        9.9302127347106630        13.686974579458754     
 H    14.062387010784329        9.3407796747350460        14.382205681006432     
 H    14.940137134761672        10.619257224437884        14.100192209162788     
 O    1.7770344623342278        9.2412237721200530        1.1179668529872480     
 H    1.4741127812752335        8.3192408248350382        1.2926270763500558     
 H    1.3873314458848063        9.6919773755410947        1.8100466386824745     
 O    2.6302662108217900        10.376489860338348        4.9382875884455091     
 H    2.0679809297545071        10.850886793666815        4.3309569693134931     
 H    3.4138290203821864        10.193028716110886        4.6456087183901591     
 O   0.89640958002602777        13.815268356150733        6.3166873167726925     
 H    1.3888102727154397        13.148707260539716        6.8441431439423317     
 H    1.4166521707374788        13.857953271569812        5.5268477635091919     
 O    13.675216156712999       0.48546374332237602        7.3862868584035253     
 H    14.118026875595998       0.63689614525392468        6.4919907492541746     
 H    14.406211906745311       0.23756632297151803        7.9138199452759084     
 O    12.092863459183672        1.1802529840873970        11.461115097013304     
 H    12.915578433583651        1.1371660476277958        10.980795070497946     
 H    12.326567116677200        1.5344192232917799        12.378465814457373     
 O    4.1180933345439730        14.122888928129550        14.678978475952778     
 H    4.3271360843297595        13.613369206495193        13.891579602585708     
 H    4.7436811307023721        13.772000275153605        15.256597983578947     
 O    2.1255619761180022        13.150642277790531       0.90278382344296304     
 H    1.7200030681537910        13.749219080506029        1.5094386002797011     
 H    2.8932604022458648        13.590210607241483       0.48378850361427578     
 O    5.7822663277602713        1.9771573394432074        6.7785228609124966     
 H    6.0927997234401072        1.1150439917566712        6.7786241277649317     
 H    5.7130687738225516        2.2482252120576347        5.8868968912911344     
 O    2.4544173314405935        2.7708614028984173        7.7715090067872579     
 H    3.1087182218993119        2.8697525855058394        7.0925495107656866     
 H    2.5883728335464449        3.5475706659222936        8.3881201989629961     
 O    2.5975142440315286       0.57300325547045339        9.6645067814423626     
 H    3.4445992748107503       0.42419276408253676        9.9741938307577218     
 H    2.7147227958759936        1.1905185921140859        8.8923868481489681     
 O    1.6924492306791119        14.233401959339872        13.093606771337662     
 H    2.3872729754303399        13.652811457971419        13.344739214079368     
 H    1.7253225473217573        14.995892345180719        13.641742843988037     
 O    5.6601847250101871        1.2735683431505962        1.4609280009549401     
 H    5.0811876390503379        1.7138355165554240       0.89345224610717755     
 H    6.5570229513488067        1.4263825480594399        1.1559304940586002     
 O    2.3808653889922646        2.3154033642492409        3.5346759808693573     
 H    2.1470484919001702        1.8914381309708079        2.7457707289755695     
 H    3.1138587165880005        2.7917134172821769        3.1620911841843364     
 O    14.628329277113009        8.6640370151214068        11.138276094720016     
 H    14.546537106776627        9.2297110705258394        11.891631705202968     
 H    13.778905199567802        8.7757711886595793        10.632836920173006     
 O    2.3597542923346588        2.9069783953411896        11.217684091018313     
 H    2.9448140724956939        3.5076071080573956        10.706942461631185     
 H    2.4099487972176705        1.9916586518584898        10.854074440641186     
 O    1.2263094955576328        6.5143181006646502        1.1244968739227217     
 H   0.76975650055517308        5.9052714719319903        1.6885318355065777     
 H   0.66859774350719048        6.5789036644366501       0.34196364385304778     
 O    15.228492750414388        1.0926036003701909        13.974141131785906     
 H    14.888555813407828        1.8060407851814502        14.542746439466120     
 H    15.215692079467059        1.5262351574406650        13.133016540169345     
 O    1.9588099603183970        5.9596521205402784        6.4611916959531319     
 H    2.7900568508172339        5.5018918009066047        6.3275315086799404     
 H    1.6523913156591055        5.8944660194900917        7.3905682362259162     
 O    5.9706565502677362        6.4194112827733614        7.1172562490868749     
 H    6.8082049011386276        6.4191272979923362        6.6096038200935023     
 H    5.8307862110980961        7.3698334032337840        7.4182866666744633     
 O    3.4414245943730370        9.2273072052087031        8.7815949393960899     
 H    2.5305936864975362        9.1915624965548588        8.4939383710365686     
 H    3.6496684660095191        8.3309316897386054        8.9913384864440449     
 O    5.8860259627210532        7.9299411750876505        15.230327061918969     
 H    6.2471274128755097        8.7614296684599786        14.973987053080908     
 H    5.3663758091693490        8.0791581674953612        16.080119117898626     
 O    4.6982888489093515        7.7157918852829850        2.6090462318260985     
 H    4.7951152409966395        8.4024881182758246        3.2857647179870244     
 H    3.9605603116652319        7.1593839352531248        2.9565853303626546     
 O    4.1533200557622445        4.6792156785374628        5.6013663293869786     
 H    4.9396451226082760        5.1702499288994561        5.9050409057787245     
 H    4.2577599718238597        4.7705759353420323        4.6701711496078229     
 O    3.8714560450377697        11.990672117065841        9.4847146782924767     
 H    3.3212543713440996        12.186068646263005        8.7688908590291366     
 H    3.8311009002313545        11.074496679567920        9.5235657585215314     
 O    7.8734876779935989        9.2563857186868201        5.6794788691665756     
 H    8.7388878188248658        9.3303744673998050        5.2861037269771254     
 H    7.6070063945837871        8.3399727330501694        5.5302675019506209     
 O    4.1873300339925601        7.5162739195945685        13.184473725056536     
 H    4.8913680556749410        7.8100999245425093        13.735449948653621     
 H    3.4283366696321460        8.1107102413164807        13.187534156362290     
 O    3.6438084805210806        11.180590926913869        2.1726863996786716     
 H    3.2864391968323980        10.474924448186961        1.6213824115289890     
 H    3.0535843641382736        11.942364320766698        2.0160060567039966     
 O    8.0464722255311756        6.4243873185702469        5.2831762755148404     
 H    7.8091108791119757        6.6708046239419181        4.3681861612966273     
 H    8.9118576354935541        6.0480455895473817        5.3408925798773943     
 O    5.9918698080019945        15.138960226010402        9.3500838510342330     
 H    5.3797496058533412        15.187073196736764        8.6480533514179019     
 H    5.4777607323239490        15.327917290510205        10.104200341990332     
 O    14.966646049468682        13.466167830821501        11.446529342354369     
 H    15.205105772437184        13.568494027353820        10.519248775292334     
 H    15.893430237494172        13.661588655979681        11.869984005423033     
 O    4.9412914972252446        13.003865929569207        11.910432262425486     
 H    4.6640155805703856        12.638696509383715        11.096690877967786     
 H    5.8768782979520697        12.881346584254453        11.804540764939953     
 O    4.5972937005070742        14.451179876411114        2.6983287536692577     
 H    4.8799167079901347        15.315753455951775        2.4670939287384850     
 H    5.4042551847754172        14.182859931587402        3.1159621340961370     
 O    4.4378236930650017        14.476224002628895        6.7835151483813956     
 H    3.7447652539064760        14.598592725157200        6.1419933088671783     
 H    4.5621730831281369        13.560491519539214        6.7537618341714172     
 O    5.7639885249100749        3.7983210995482488        11.065005823794486     
 H    5.9552387491169485        3.8447340620349229        10.132647371557496     
 H    6.2276416698611969        3.0975830763807912        11.492459453512399     
 O    4.6584342970181121       0.13375919183556437        11.582800348451959     
 H    4.6010614553082867      -0.76027240574739352        11.906685120609026     
 H    5.1380346226173685       0.45128164851383046        12.377322972224585     
 O    3.9994055949597160        4.8224716732059330        13.321071976697011     
 H    4.1379757700387749        5.8283256619664572        13.271032166218818     
 H    4.5437156561099279        4.4235154466241227        12.626647367961708     
 O    8.2947118180860517        1.5355330260452347       0.48796123951011489     
 H    8.9605624174037892        1.0303552931445428       0.93580094093615962     
 H    8.8125129839038081        2.0595094498459012      -0.17741376326366340     
 O    6.4431017886321529        2.1388397109152257        3.9567714101800346     
 H    6.4818459874057268        1.5134780629567957        3.2482049397937036     
 H    6.5403880956603713        2.9328415425049070        3.4443774596369723     
 O    2.7717647804204852        4.9917810037927710        9.4128928174003015     
 H    2.0099955991269627        5.5371345411105128        9.7604665071339163     
 H    3.5040763483511270        5.5899657254519886        9.4979315822330612     
 O    4.8126750349601135        6.8401946369979978        10.203483259178038     
 H    5.7763471976590743        6.7213806586078304        10.357809346815309     
 H    4.5829129075595825        7.1077298132786950        11.058049568337054     
 O    1.4924279400118197       0.73587463604238856        1.3378293122921137     
 H    2.2421702106073096       0.69770903404685825       0.68054565004162537     
 H   0.84222074562613836        1.1682523048996099       0.85420242336914221     
 O    7.1001820691345738        4.2542880931607421        2.1713045876821280     
 H    6.6857605246761942        4.2845453644359264        1.3245542743323246     
 H    7.0048974414743572        5.1726372411982453        2.5271334737407289     
 O    8.9772055543203564        1.7184558487208375        4.9577684947823997     
 H    8.1185930765241618        2.0124656313500751        4.5798001015534187     
 H    9.6230314433274451        2.4051972323972297        4.6411790399277679     
