         375
 BOX    15.491417631750201        15.491417631750201        15.491417631750201     
 O    6.2443644301526904        7.6063777018703105        8.3294703034158406     
 H    6.5488590338217412        7.9503685055693287        7.5169673087036584     
 H    5.8489749837282696        6.8011743842251811        8.1543824093390924     
 O    9.2737975900715863        7.9470701177964838        11.305653666417998     
 H    10.025824701706481        7.6298979443779134        10.836777818436147     
 H    9.0133851670949756        8.7887985579083416        10.949934055692397     
 O    7.0291144555036409        8.3879304334648790        13.379681072007815     
 H    7.7617690701917921        8.2613389861624853        12.735889541230975     
 H    7.0556597200715130        9.3199313858367709        13.625067035753824     
 O    8.4297655047755136        7.8558853580757573        2.3340120850460941     
 H    9.3442492080184696        7.6115211133396343        2.0198850721864705     
 H    8.4084846839610137        8.7771838861885243        2.3279069556552376     
 O    6.8930383038819745        8.6413113946184978        5.7736314514541132     
 H    7.4068269434973413        8.0014771205771975        5.3413720006399821     
 H    7.0696747739176100        9.5419037042035235        5.4375161438932409     
 O    7.5670382975843662        11.176368497279849        8.1503889949340689     
 H    8.4115450115331853        10.839815087227072        7.8124240525708348     
 H    7.5845206424717722        12.102883973937271        8.1992132704076255     
 O    8.3635632245570743        10.588947313189141        10.835262352995462     
 H    9.3015285172898317        10.815727131951661        10.808444069486381     
 H    8.0130898824305952        10.585989379218455        9.8771860893470844     
 O    6.8544819321676940        10.996504203851776        14.740382488619804     
 H    7.0833519577252844        11.117180767984673        15.694303980635425     
 H    7.0355296044983158        11.924300656376934        14.472892535786539     
 O    7.0044480169417351        11.453929042329376        1.9120316800779695     
 H    7.3322438941735610        11.232359055928510        2.7762666920621393     
 H    7.3002627358916552        12.410718635108202        1.7710273881430909     
 O    7.5569190908204016        11.131321708089438        4.6914629996307502     
 H    8.4743434186690045        11.302023744569425        5.1138656103710209     
 H    7.0114380683287667        11.780095442308687        5.0579854328471505     
 O    7.8759547798005283        14.069095661692684        7.7638234428873973     
 H    8.7655385458225350        14.322327346150749        7.5341412190063677     
 H    7.4699172881034839        14.800413650205728        7.3491275802128913     
 O    7.3469408014769932        13.146315840677076        10.896369249743074     
 H    7.7420763570485303        12.258798885268426        10.998717464165772     
 H    7.9764231837742479        13.708357505376753        10.523484018999461     
 O    7.8476491836783451        13.312885571156622        13.748356501550960     
 H    7.7180301910110591        14.195797398639773        13.982963185464031     
 H    7.7565109654187943        13.134244810149712        12.876447240090020     
 O    7.6087125938369002        14.070892973739269        1.5965043583733298     
 H    8.0822290749338528        14.583168154185259       0.96337957473841707     
 H    7.3688946044399160        14.578063179873665        2.3381012955385998     
 O    6.7718483170100630        1.3992821665077640E-002   3.8001689796144578     
 H    7.2631931551461060      -0.47262540154193378        4.4784096795278048     
 H    7.3386392664864211       0.76975590503829516        3.7543790492855194     
 O    7.1009709449694416        1.3468010891762003        6.8899190882210801     
 H    7.1440218373975730        1.4394491277156218        7.8420536799165443     
 H    7.0204386767336375        2.3349964781891046        6.6776533128245283     
 O    7.6570406062961585        1.7334075882646596        9.6783838131347153     
 H    8.4967927053720604        1.7173190354756622        9.9968568830462505     
 H    7.1521201931584333        2.3727937020167991        10.132546270053130     
 O    8.6105272530551886       0.17162805782354582        15.054036088854271     
 H    9.5603031237970075       0.34828650000303857        14.911613258561790     
 H    8.1754697385117616       0.95567208036489393        15.309720439818921     
 O    7.6715035311224993        2.7324934338932385       0.77457110931405337     
 H    7.5152351551748353        2.7483963665506814        1.7563495294176319     
 H    7.8514590344504569        3.5932756226389904       0.53180056785757701     
 O    7.3898753117957892        2.7549244287218935        3.7476032178124314     
 H    6.5165661474424370        2.6394859582534123        4.1397421943889636     
 H    7.9696999518111786        2.9071055585941186        4.5010271718899446     
 O    7.1513018078004071        4.0482380042786534        6.5208750939106519     
 H    7.0906519565699151        4.6124415644314514        5.7250213243608208     
 H    7.8746928430972112        4.3539519505742410        6.9826073541623499     
 O    8.6017995873265196        4.9837082598562787        10.055497919814909     
 H    9.2025124327626173        4.6308126090604400        10.694072006142182     
 H    8.3633039884399398        5.8143192257826266        10.413714486349241     
 O    8.5410702884161172        5.5569049024994364        13.046986143626709     
 H    8.7902677495010266        5.4438196114188111        13.946657211120632     
 H    8.9030902018576885        6.4026190845414375        12.856752634461664     
 O    7.4000545473785602        6.0962403066434634       0.33306218489708211     
 H    6.9159203703667407        6.5865356133168849      -0.32308699699577414     
 H    7.7409281017064391        6.8031152844352585       0.90423922694683190     
 O    7.1748543688098492        5.8002132247454838        3.8557949517895049     
 H    6.3247410902439940        5.6014312708373417        3.5784564023247798     
 H    7.5581659894112372        6.3350412733583283        3.1876589975305536     
 O    10.931938780467549        7.4191387070213821        7.3535963102021595     
 H    11.820002623328662        7.5661840883124132        7.6451301781979994     
 H    10.890998415747278        7.6181515470308296        6.4053938755870572     
 O    11.584211990164791        6.6192096786402415        10.572534901215001     
 H    11.390424154263885        5.7608498625227380        10.860008678163952     
 H    12.510673616576913        6.7777007817593047        10.744023239911053     
 O    11.217341908831225        8.5380821225025478        14.364628744178455     
 H    12.085330161888125        8.7183514061225296        13.954363387548627     
 H    10.713503489335180        9.3754186110773112        14.325082461512165     
 O    11.064759681170798        7.7357682675813297        1.3990243055586389     
 H    11.230668885611861        7.8124518854661495       0.47009129373324055     
 H    10.927793829161825        8.6611170051297783        1.5321760171910086     
 O    10.861166322477947        7.9989734552380494        4.7405490788323981     
 H    11.559775662266478        7.4397468657300401        4.3721732994756444     
 H    10.975145826638713        8.7470287143578975        4.1590927047179251     
 O    10.022083214652200        9.8587080168100325        7.9335559866501359     
 H    10.287037602468686        8.9034618566583141        7.9099341655068560     
 H    10.574412154934057        10.320029363208775        8.5288291468710131     
 O    11.153739007744818        11.421693831779006        10.492295144077273     
 H    12.051048300303648        11.099879566747090        10.694091358088269     
 H    11.011685996611707        12.376649305426145        10.784830761232231     
 O    9.9028902911196059        11.015981141254905        14.739468038337305     
 H    10.263904172072440        11.787690261723297        14.204447159412652     
 H    8.9502063707372947        11.123937023255044        14.665839567433077     
 O    10.173784352037162        10.482383752453613        2.0971113351603021     
 H    10.550780259772173        11.318727582227352        2.2273347233753462     
 H    10.240877847030520        10.510703797216035        1.1662678374864821     
 O    10.047363002951606        11.927816711399426        5.3558808341828481     
 H    10.163105310471259        12.833805946256136        5.5994197023013417     
 H    10.266695841265989        11.358529007815234        6.1695281870000578     
 O    11.054588043698965        13.236804575305689        7.7998355896897067     
 H    11.908917133333173        12.907151744798735        7.6947571508546275     
 H    10.766970831135186        12.947921375542476        8.6219847827682585     
 O    10.384609803898998        14.282367514482093        10.658180786600887     
 H    10.525929421298203        14.192573779369601        11.517073131967990     
 H    10.407781502093243        15.255821272756716        10.590590554921466     
 O    11.028614020197370        13.150962129658698        13.295358973807790     
 H    11.961359622158200        13.038315826326246        13.359532546358503     
 H    10.868959959125718        13.993388964625249        13.796997874917139     
 O    11.019831999100331        12.962896599607912        2.9675517492927335     
 H    10.993643138843238        12.402936604604662        3.7598472595825760     
 H    11.924695584800299        13.248507620941449        2.7789844007285822     
 O    9.0981174527054804        14.613785875622920        4.7003089085035157     
 H    9.4771523987140220        14.103204005699997        3.9865131543336378     
 H    9.5162056861626265        15.488235384608247        4.5912575653685046     
 O    10.456532543918962        2.2429802126494085        7.7890692079014796     
 H    10.090960141458872        3.0233768606395821        7.3703112861355766     
 H    10.525708965727253        1.6008317856206045        7.0554585114474975     
 O    10.228203935908269        1.5246546520236428        10.509586908657758     
 H    10.469599463805316        1.9131060931974246        9.6652587217116555     
 H    10.436858075991839        2.1315300818838945        11.242056927102647     
 O    11.426833351147030        7.3172125528495908E-003   14.989380273466555     
 H    11.330696701766565       0.27960182775180986        15.894041123323165     
 H    12.243295298708240       0.42307942942216109        14.708122889073854     
 O    11.191154536744529        1.8335802139328483        1.7188826430968718     
 H    11.208638267860497        2.1275802753369164        2.6359071148460735     
 H    10.685842771112746        2.4281186341986656        1.2247176161419868     
 O    10.901722422770677        1.1623678071955699        5.1948039212102017     
 H    11.680110386745289       0.74000161376723972        4.9169952700760611     
 H    11.054246725329550        2.1193929733924901        5.1603408088140190     
 O    9.8104072599316439        4.9598917401842790        7.4669984001962550     
 H    9.7204004527807726        5.0950809297304875        8.4208352954705816     
 H    10.222447269918636        5.8254000829287333        7.2462725932202670     
 O    11.013009335903542        3.7576582764733244        12.015122483432654     
 H    12.009900628249653        3.7322150852575096        12.101008423062725     
 H    10.745631630580132        4.1299354546425917        12.842277343370325     
 O    11.167237672205488        5.3395804452682807        14.636485187027175     
 H    11.360869715620533        5.0721665150125546        15.511323903450878     
 H    11.657027428703051        6.1254355892075978        14.595458244172367     
 O    11.265601090074533        5.0573193624563197        2.0225300183620938     
 H    12.091633898083945        4.5983162542958462        1.7916564492895926     
 H    11.338139446232255        5.9969834461528322        2.0142480046780782     
 O    11.388935025399975        3.8526642331785359        5.0407411698458837     
 H    11.751054443223532        4.5510777330843499        4.4941673266748552     
 H    11.380785664805817        4.0613357288849823        5.9431488969294080     
 O    13.950645465048460        7.2027667979119379        7.8983749332673758     
 H    14.001108347825138        7.3351977576887117        8.8393982523414660     
 H    14.709270531927297        7.4902731304560390        7.4785229261097488     
 O    14.193841880381632        7.6153803263925326        10.672418673423561     
 H    15.168642034209510        7.6462702073724538        10.596073090533942     
 H    13.948044597556137        8.5474685053276325        10.685498237816141     
 O    13.678608272496188        8.4113339522858670        13.566850854009276     
 H    14.105647304282858        8.2501150456458507        12.709288301153437     
 H    14.154717982445099        9.0784430331498189        13.970268897302374     
 O    14.551977755865975        6.5897374457334008       0.46679985155826176     
 H    15.191937172507199        7.0834083371281480       0.94714337931584969     
 H    14.228378900815006        7.1637813146601266      -0.21059245039909827     
 O    13.354751642347486        6.1204933126784651        4.1847042849488671     
 H    13.504916314117441        5.5117155999140630        4.9075416990757716     
 H    13.436665109954379        5.6438835750861793        3.3686611521939449     
 O    14.163718724409090        11.016600359690772        8.1369704905131570     
 H    14.844535694902975        10.680556858838395        7.5679272662394190     
 H    14.019279597526095        11.927783487251059        7.8111076760309199     
 O    13.667305534644225        10.336999670741093        10.879676460056828     
 H    14.462476611616191        10.516779294287831        11.240922041169190     
 H    13.869886303966629        10.546318787691044        9.9345374564919542     
 O    14.756771206546892        11.033949835607006        14.237880285299788     
 H    14.231502096642661        10.929877800982004        15.004079286197735     
 H    14.698411612587337        11.910009193751355        13.990796373733039     
 O    14.186442573117747        11.097027203550081        1.5871089292429192     
 H    15.147927465115707        11.082635168479717        1.4633209714828814     
 H    13.942647882014896        11.992368914963640        1.7890840612211303     
 O    15.098136476065788        9.7387226015851347        3.8394368719277270     
 H    15.727723014050186        10.418276490173989        4.1375861557183153     
 H    14.685238878506183        10.086990671144385        3.0481302572779407     
 O    13.776001414982920        13.782518927963363        7.8539459204649722     
 H    14.107915930229192        13.868764463129118        8.7439635686740260     
 H    13.262275461485521        14.553082591315260        7.7177725819110474     
 O    14.603879861180365        13.943439620231803        10.620682152345625     
 H    15.368374454742533        13.518651381034596        10.936408507167004     
 H    14.701217557900636        14.853224686833835        10.852707054361556     
 O    13.855494170217920        13.482749772704489        13.274350667309671     
 H    14.503255184603924        14.031030146384884        13.698252297525842     
 H    14.015443405993596        13.808985827544092        12.416236374819405     
 O    13.508887526614055        13.712053112958509        2.2793805282050292     
 H    13.717798898752491        13.906119232812099        3.2120601720627495     
 H    13.926344832696689        14.402561840988547        1.7803500757764346     
 O    14.258048389746774        13.513958821290126        4.8741588235624356     
 H    14.668096144403618        14.388782892026281        5.0108352275601042     
 H    14.379417553493299        13.152157120319810        5.7733573465108385     
 O    13.149265199767465        1.0899842593588078        7.1745319569033885     
 H    12.457309761729917        1.6889672396542419        7.4566903104641025     
 H    13.175886325881184        1.2253077775767640        6.2143440264242953     
 O    14.861867249701298        1.1273987511057635        11.566482336477396     
 H    14.699686430854653        1.0467938874089620        12.556855535598714     
 H    14.488657089327353        1.9712223490114542        11.333320904675054     
 O    14.394874762518226        1.4437931114931406        14.254016883588008     
 H    15.225439288133597       0.86560141720244677        14.465112476378817     
 H    14.698145613113699        2.3266599420601239        14.112862483219960     
 O    14.946682049551379       0.42006124579731191        1.6795554576748004     
 H    15.686141804548940       0.81764612173054840        1.2850657216224515     
 H    14.693998160570034       0.98848687861230156        2.3728864416069770     
 O    13.944104305413555        1.7133478517792324        4.1684677554723359     
 H    14.692711511550813        1.2953122417776894        4.6016591797762567     
 H    14.031992598942578        2.6053572370129521        4.3621390155720112     
 O    13.747990053986163        4.3951460289183819        8.2147385362932184     
 H    14.533116056862404        4.1473798354051077        8.6793474904500965     
 H    13.766092248414674        5.3317578315666472        8.0591950511204242     
 O    13.603350239302063        3.8763228355741215        11.682560195991549     
 H    13.625161355604826        4.2545305463559382        10.803788079153804     
 H    14.122841831331288        4.3915139689178728        12.271319823936198     
 O    14.870326632850695        4.4567912730691228        14.122987808401236     
 H    15.704215789893993        4.2505774662329774        13.739059710306343     
 H    14.934499696850363        5.2309306118029726        14.643743618882551     
 O    13.494273871061209        3.4993702922416849        1.4843394558353245     
 H    12.850774067628651        2.8304806517488781        1.3180118325203491     
 H    13.983351248012728        3.6771158996057616       0.67646831193172174     
 O    14.414010558751183        4.2095424740823724        5.7451680853295315     
 H    15.353073159751798        4.1664432119001491        5.6791765980336342     
 H    14.229791095452724        4.2698265652837240        6.6784813961280305     
 O    1.1917136150876348        8.4352581025298914        7.2985803381848404     
 H   0.84263171188382058        8.2134647307230964        6.5073445556194383     
 H    2.1497808105480716        8.4672362474232088        7.2950979450821540     
 O    1.2861537274992225        8.0097293348719560        11.032083976732519     
 H    2.1554295146703080        7.8013701882928128        10.751309838111109     
 H    1.2418095390581230        8.9650304624017920        11.125701090286171     
 O    1.7133614192009947        7.0011894461864834        13.548278508761774     
 H    1.4759983642043430        7.2249058555537031        12.645804193135932     
 H    1.9166724066598859        7.8708349588647470        13.877111478862968     
 O    1.4162343651997662        7.2431184183001083        1.8409004451297661     
 H    2.3284130613800853        7.1951515829282426        1.6181575375580457     
 H    1.5210638235935596        7.2117336737894711        2.7875671071106667     
 O   0.59055721863711597        7.3092726028497514        4.7342986126534168     
 H   -1.0426183017527919E-002   6.5682729996006373        4.7673417280040846     
 H    5.4533139073515473E-002   7.9707890736315026        4.2200039183186275     
 O    1.5027357129582926        11.422847827381762        7.5972424905713751     
 H    1.6187783364632991        10.561032139429541        8.0449866355683959     
 H    1.7387314463705514        12.132543722421183        8.1396223276598594     
 O    1.3899752559505276        10.724066831651717        11.720869358801547     
 H    1.4254626432880342        11.704074516725393        11.835765596727510     
 H    1.5942117781872056        10.612632069595383        12.642550821198178     
 O    2.4152556865343220        9.5965709546097031        14.025559675489674     
 H    3.1473493662049719        10.248642681792376        13.815365521744024     
 H    1.8974047400602694        9.8926328380629407        14.784609105435930     
 O    1.3609543959451125        9.9700363341051670        1.0568597420926082     
 H    1.3983409777945122        9.0981234663021215        1.4956558062410599     
 H    2.1801237787681957        10.366306055086605        1.1893052971815594     
 O    1.4567645125862259        11.510132806071770        4.9517814810269165     
 H    1.5088296062482875        11.364114937067587        5.9285393456098570     
 H    1.5102704832997944        12.414299703834896        4.7685365970386115     
 O    1.6291830953914899        13.641442159894449        9.2341455873499960     
 H    2.3762050507689949        13.772423723077930        8.7021945906034777     
 H   0.99336388462885428        14.300381670970285        8.9488446616926094     
 O    1.9811650660105273        13.403361953880276        11.826269976468454     
 H    2.7157361509110363        13.939599246163453        12.103756205192678     
 H    1.9454304768297408        13.609978720792171        10.938207629666717     
 O   0.75785155350592281        14.971289236697043        14.044599824108804     
 H    1.2198384602110004        14.734791572433823        14.853678670978034     
 H    1.2304489140113173        14.552888999651575        13.387343885454039     
 O    2.0189036081680216        14.283626037762735       0.80986793406419810     
 H    2.9226315176703275        14.588533808595443       0.79786248849458874     
 H    1.5373832128535554        14.723234014893931        1.5036017885815469     
 O    1.8407083860113846        13.911723114952585        3.6338803431379105     
 H    2.7174978892097177        14.183647725385915        3.7223492278230754     
 H    1.8357346245338091        13.376245902305932        2.7679550460117341     
 O   0.61211166985584275       0.85186606581470670        8.4618313304935864     
 H   0.88699659327911717        1.7097099207172366        8.8835101636153215     
 H  -0.30255885530650317       0.84853300321613223        8.2667861162229492     
 O    2.1237713762554589       0.66751693803999457        11.265177443926186     
 H    2.3372506150918131        1.1375201948103668        10.404106020454453     
 H    1.1999307308003515       0.97557584251795948        11.418067485108702     
 O    3.0301359652033564        2.0623385903708953        13.505322158373573     
 H    4.0087258712350060        2.1076841597205300        13.549089282486163     
 H    2.8605166540189355        1.4062409020117823        12.819274769951457     
 O    1.7912882363671045        1.8697451680125337       0.61947208816346688     
 H    2.0879702119459349        1.8659369258678786      -0.27714159991150122     
 H    1.6350442770660898        2.8058488910204211       0.78851839214452557     
 O   0.48844954874657953       0.19639798324351701        5.3865013957749603     
 H   0.87650638690063398       0.13104057175456879        6.2621995516244811     
 H    1.0955809639250083      -0.31207608609480547        4.8388189118457117     
 O    1.8058020767008640        5.4792301303329820        8.3041997346580487     
 H    2.6312496435220032        5.3734080540076423        7.8391879944670020     
 H    1.5088261817676047        6.3574022648397754        8.0020031031212575     
 O   0.89844852050211343        3.4506391891522807        9.7534919439276280     
 H    1.3604094924004706        3.6456581146470093        10.578285658451117     
 H    1.3062009767055967        4.1191444797646568        9.1784069173037643     
 O    1.7865991256993898        4.5051153616342674        12.592737260375124     
 H    2.5495073029450026        3.9097474133149897        12.797137910849573     
 H    1.9484262492501094        5.2793654324248669        13.075960776118459     
 O    1.8223526279482110        4.5900998710680296        1.5029922519556902     
 H    2.7245967067314107        4.6206674648092081        1.0502788587237122     
 H    1.3854193871768152        5.4215976559155372        1.2703848477155075     
 O    1.3849569940188144        3.7174650947142522        4.4196475745656887     
 H    2.1082380306850155        4.2898301437493123        4.4719923708634468     
 H    1.1385381459424468        3.7559225626334753        3.5214113934101450     
 O    3.7988477976910353        8.4226573548736567        7.2329857996990130     
 H    4.5741078965947679        8.1158434671641828        7.7460570183575985     
 H    4.0438508824899202        9.3383900875757444        7.3327422695366540     
 O    4.0620612599660397        8.2101492160825682        10.889182913711185     
 H    4.7235974396007947        7.7208672338364996        10.456216344610899     
 H    4.3204877160736785        9.1358894793982071        10.863745700955343     
 O    4.9328108917444711        7.0415262579398412        13.849577789869462     
 H    5.5024435366023745        7.7914605239763626        13.621639271792604     
 H    4.0029547851344187        7.3732780379549885        13.904128183312352     
 O    4.4455192361835625        7.7786458815615331        1.7773031524466421     
 H    4.8456620387339155        8.0664390527762926        2.6318479327389559     
 H    4.6157506205285657        8.4952432671455380        1.2000185720020153     
 O    4.6924094922173403        7.9514415202742388        4.6873459773854576     
 H    5.5287771648006654        8.3000722220181320        5.0454658757086310     
 H    3.9896739165815536        8.4268077160309307        5.1408922557734087     
 O    4.8094803977030258        10.876084493261061        8.1639761101213750     
 H    5.7594446802690351        10.854433873908397        7.9865583326621739     
 H    4.5995814257338363        10.503136424929846        9.0228807640518323     
 O    5.0837399521818192        10.829875490460362        10.977356416309540     
 H    5.7492592096735784        11.333972037057134        10.546597803647089     
 H    4.9996295781621125        11.119897253649610        11.841018335125586     
 O    4.1947832467249810        11.579365041622278        13.766685373846901     
 H    4.9737311255003656        11.378167455902441        14.242983605456535     
 H    4.1171380503793911        12.523008203802011        13.772118545447567     
 O    3.6311743037162905        11.315012558906577        1.4144133430625210     
 H    4.1741295754371004        11.430501899674079        2.2153907565461313     
 H    3.7252205363985884        12.026953096176044       0.72378098103471111     
 O    4.4763165813005408        11.779606459244620        4.0798815177337433     
 H    3.5782951529002900        11.550370736494973        4.2387115846602672     
 H    4.7251604433962102        12.671347042855814        4.3401355565482485     
 O    4.4121675799369466        13.752414295811938        8.7801472962159419     
 H    4.3646013350166708        12.819678497065352        8.5050920404393455     
 H    4.8158346855850853        14.072892731606807        7.9542371001984300     
 O    5.4395515889047568        15.404327595509491        10.813087057661374     
 H    6.1939744098288605        14.799099630293533        10.876061730789131     
 H    4.8433296362524674        14.952630613130614        10.283637581110332     
 O    4.3588449188690817        14.641567147248299        13.296512730377490     
 H    4.7185795292262274        15.004678115363077        14.090102888753561     
 H    4.8480980806007565        15.017100033328218        12.549061577067357     
 O    5.0721960056400643        14.776474586742987       0.54001104447096748     
 H    5.9077173958331093        14.458959250312398       0.79012553917466932     
 H    4.9515105388416956        15.593631880353641       0.97814878141868300     
 O    4.2404665942204662        14.593433226706747        4.6502043996511757     
 H    4.9566732199972572        15.016702617229789        4.1496132724262802     
 H    4.2593224668426357        15.128606724806806        5.4387285207081018     
 O    4.5893854355182606       0.48070974514370457        6.9359994845554720     
 H    5.4632952032397695       0.86279058078173110        6.8546837511828942     
 H    4.2255236725734857       0.94126213015920412        7.6429816682312310     
 O    4.1953444777465112        2.0296821406264627        9.5368441389743204     
 H    4.5345041228574532        1.4318821005164732        10.206989047812069     
 H    4.6890657781989633        2.7702737063376794        9.8618339553446255     
 O    5.4591700551699445        2.0259739114838808        14.751677885298417     
 H    4.7980773989754821        1.5836006340929307        15.296220202048021     
 H    6.0312022715115532        2.4503497353492882        15.387168362261580     
 O    4.1148137481412208        1.3944366619363560        1.7296928586757934     
 H    4.3443204220050715        1.9289415191440817        2.4973524820879600     
 H    3.1551445313897961        1.5772662107412738        1.7247548560630463     
 O    4.5055709812548468        2.7831378574863654        4.5120520413895218     
 H    4.1239673926307061        2.7190296094395419        5.3770586525563573     
 H    4.4216379257311624        3.6649949740547112        4.2001047062603423     
 O    4.8071375666076239        4.8942465243729654        7.7415446098546505     
 H    5.6050659883506002        4.8082322672072939        7.2654991725723272     
 H    4.9987938020624885        4.5206760257177203        8.6200368181776525     
 O    5.9955029767997097        4.1452894503010365        10.067511620326556     
 H    6.8548695061480673        4.3640820987647713        9.9489989165366328     
 H    5.8464529155956830        4.5296875676914174        10.908978239665457     
 O    5.7043790839917392        4.5614366055310320        12.737213554863304     
 H    6.5899125304411195        4.6335275283905348        13.002356086241660     
 H    5.3546188191552595        5.3241190669748963        13.087654125272561     
 O    4.2460136833408200        4.9610793028207354        5.8249499950914371E-002
 H    4.8221553138103976        4.3098830420235279      -0.35986926320465024     
 H    4.6844283143515151        5.8100295259733645      -0.19459873127721483     
 O    4.2465251655326917        5.3894941547382054        3.5060262661033552     
 H    4.3052210425547637        5.8827317972807265        2.6453912038086433     
 H    4.1097798277213062        6.1477914305349239        4.0768796685267032     
