         375
 BOX    15.535685336237503        15.535685336237503        15.535685336237503     
 O    7.7678426681187513        7.7678426681187513        7.7678426681187513     
 H    8.7097781033427513        7.7678426681187513        7.7678426681187513     
 H    7.4861655493152837        8.6666754472680232        7.7678426681187513     
 O    7.7678426681187513        7.7678426681187513        10.874979735366253     
 H    8.7097781033427513        7.7678426681187513        10.874979735366253     
 H    7.4861655493152837        8.6666754472680232        10.874979735366253     
 O    7.7678426681187513        7.7678426681187513        13.982116802613751     
 H    8.7097781033427513        7.7678426681187513        13.982116802613751     
 H    7.4861655493152837        8.6666754472680232        13.982116802613751     
 O    7.7678426681187513        7.7678426681187513        1.5535685336237488     
 H    8.7097781033427513        7.7678426681187513        1.5535685336237488     
 H    7.4861655493152837        8.6666754472680232        1.5535685336237488     
 O    7.7678426681187513        7.7678426681187513        4.6607056008712497     
 H    8.7097781033427513        7.7678426681187513        4.6607056008712497     
 H    7.4861655493152837        8.6666754472680232        4.6607056008712497     
 O    7.7678426681187513        10.874979735366253        7.7678426681187513     
 H    8.7097781033427513        10.874979735366253        7.7678426681187513     
 H    7.4861655493152837        11.773812514515525        7.7678426681187513     
 O    7.7678426681187513        10.874979735366253        10.874979735366253     
 H    8.7097781033427513        10.874979735366253        10.874979735366253     
 H    7.4861655493152837        11.773812514515525        10.874979735366253     
 O    7.7678426681187513        10.874979735366253        13.982116802613751     
 H    8.7097781033427513        10.874979735366253        13.982116802613751     
 H    7.4861655493152837        11.773812514515525        13.982116802613751     
 O    7.7678426681187513        10.874979735366253        1.5535685336237488     
 H    8.7097781033427513        10.874979735366253        1.5535685336237488     
 H    7.4861655493152837        11.773812514515525        1.5535685336237488     
 O    7.7678426681187513        10.874979735366253        4.6607056008712497     
 H    8.7097781033427513        10.874979735366253        4.6607056008712497     
 H    7.4861655493152837        11.773812514515525        4.6607056008712497     
 O    7.7678426681187513        13.982116802613751        7.7678426681187513     
 H    8.7097781033427513        13.982116802613751        7.7678426681187513     
 H    7.4861655493152837        14.880949581763023        7.7678426681187513     
 O    7.7678426681187513        13.982116802613751        10.874979735366253     
 H    8.7097781033427513        13.982116802613751        10.874979735366253     
 H    7.4861655493152837        14.880949581763023        10.874979735366253     
 O    7.7678426681187513        13.982116802613751        13.982116802613751     
 H    8.7097781033427513        13.982116802613751        13.982116802613751     
 H    7.4861655493152837        14.880949581763023        13.982116802613751     
 O    7.7678426681187513        13.982116802613751        1.5535685336237488     
 H    8.7097781033427513        13.982116802613751        1.5535685336237488     
 H    7.4861655493152837        14.880949581763023        1.5535685336237488     
 O    7.7678426681187513        13.982116802613751        4.6607056008712497     
 H    8.7097781033427513        13.982116802613751        4.6607056008712497     
 H    7.4861655493152837        14.880949581763023        4.6607056008712497     
 O    7.7678426681187513        1.5535685336237488        7.7678426681187513     
 H    8.7097781033427513        1.5535685336237488        7.7678426681187513     
 H    7.4861655493152837        2.4524013127730204        7.7678426681187513     
 O    7.7678426681187513        1.5535685336237488        10.874979735366253     
 H    8.7097781033427513        1.5535685336237488        10.874979735366253     
 H    7.4861655493152837        2.4524013127730204        10.874979735366253     
 O    7.7678426681187513        1.5535685336237488        13.982116802613751     
 H    8.7097781033427513        1.5535685336237488        13.982116802613751     
 H    7.4861655493152837        2.4524013127730204        13.982116802613751     
 O    7.7678426681187513        1.5535685336237488        1.5535685336237488     
 H    8.7097781033427513        1.5535685336237488        1.5535685336237488     
 H    7.4861655493152837        2.4524013127730204        1.5535685336237488     
 O    7.7678426681187513        1.5535685336237488        4.6607056008712497     
 H    8.7097781033427513        1.5535685336237488        4.6607056008712497     
 H    7.4861655493152837        2.4524013127730204        4.6607056008712497     
 O    7.7678426681187513        4.6607056008712497        7.7678426681187513     
 H    8.7097781033427513        4.6607056008712497        7.7678426681187513     
 H    7.4861655493152837        5.5595383800205216        7.7678426681187513     
 O    7.7678426681187513        4.6607056008712497        10.874979735366253     
 H    8.7097781033427513        4.6607056008712497        10.874979735366253     
 H    7.4861655493152837        5.5595383800205216        10.874979735366253     
 O    7.7678426681187513        4.6607056008712497        13.982116802613751     
 H    8.7097781033427513        4.6607056008712497        13.982116802613751     
 H    7.4861655493152837        5.5595383800205216        13.982116802613751     
 O    7.7678426681187513        4.6607056008712497        1.5535685336237488     
 H    8.7097781033427513        4.6607056008712497        1.5535685336237488     
 H    7.4861655493152837        5.5595383800205216        1.5535685336237488     
 O    7.7678426681187513        4.6607056008712497        4.6607056008712497     
 H    8.7097781033427513        4.6607056008712497        4.6607056008712497     
 H    7.4861655493152837        5.5595383800205216        4.6607056008712497     
 O    10.874979735366253        7.7678426681187513        7.7678426681187513     
 H    11.816915170590253        7.7678426681187513        7.7678426681187513     
 H    10.593302616562786        8.6666754472680232        7.7678426681187513     
 O    10.874979735366253        7.7678426681187513        10.874979735366253     
 H    11.816915170590253        7.7678426681187513        10.874979735366253     
 H    10.593302616562786        8.6666754472680232        10.874979735366253     
 O    10.874979735366253        7.7678426681187513        13.982116802613751     
 H    11.816915170590253        7.7678426681187513        13.982116802613751     
 H    10.593302616562786        8.6666754472680232        13.982116802613751     
 O    10.874979735366253        7.7678426681187513        1.5535685336237488     
 H    11.816915170590253        7.7678426681187513        1.5535685336237488     
 H    10.593302616562786        8.6666754472680232        1.5535685336237488     
 O    10.874979735366253        7.7678426681187513        4.6607056008712497     
 H    11.816915170590253        7.7678426681187513        4.6607056008712497     
 H    10.593302616562786        8.6666754472680232        4.6607056008712497     
 O    10.874979735366253        10.874979735366253        7.7678426681187513     
 H    11.816915170590253        10.874979735366253        7.7678426681187513     
 H    10.593302616562786        11.773812514515525        7.7678426681187513     
 O    10.874979735366253        10.874979735366253        10.874979735366253     
 H    11.816915170590253        10.874979735366253        10.874979735366253     
 H    10.593302616562786        11.773812514515525        10.874979735366253     
 O    10.874979735366253        10.874979735366253        13.982116802613751     
 H    11.816915170590253        10.874979735366253        13.982116802613751     
 H    10.593302616562786        11.773812514515525        13.982116802613751     
 O    10.874979735366253        10.874979735366253        1.5535685336237488     
 H    11.816915170590253        10.874979735366253        1.5535685336237488     
 H    10.593302616562786        11.773812514515525        1.5535685336237488     
 O    10.874979735366253        10.874979735366253        4.6607056008712497     
 H    11.816915170590253        10.874979735366253        4.6607056008712497     
 H    10.593302616562786        11.773812514515525        4.6607056008712497     
 O    10.874979735366253        13.982116802613751        7.7678426681187513     
 H    11.816915170590253        13.982116802613751        7.7678426681187513     
 H    10.593302616562786        14.880949581763023        7.7678426681187513     
 O    10.874979735366253        13.982116802613751        10.874979735366253     
 H    11.816915170590253        13.982116802613751        10.874979735366253     
 H    10.593302616562786        14.880949581763023        10.874979735366253     
 O    10.874979735366253        13.982116802613751        13.982116802613751     
 H    11.816915170590253        13.982116802613751        13.982116802613751     
 H    10.593302616562786        14.880949581763023        13.982116802613751     
 O    10.874979735366253        13.982116802613751        1.5535685336237488     
 H    11.816915170590253        13.982116802613751        1.5535685336237488     
 H    10.593302616562786        14.880949581763023        1.5535685336237488     
 O    10.874979735366253        13.982116802613751        4.6607056008712497     
 H    11.816915170590253        13.982116802613751        4.6607056008712497     
 H    10.593302616562786        14.880949581763023        4.6607056008712497     
 O    10.874979735366253        1.5535685336237488        7.7678426681187513     
 H    11.816915170590253        1.5535685336237488        7.7678426681187513     
 H    10.593302616562786        2.4524013127730204        7.7678426681187513     
 O    10.874979735366253        1.5535685336237488        10.874979735366253     
 H    11.816915170590253        1.5535685336237488        10.874979735366253     
 H    10.593302616562786        2.4524013127730204        10.874979735366253     
 O    10.874979735366253        1.5535685336237488        13.982116802613751     
 H    11.816915170590253        1.5535685336237488        13.982116802613751     
 H    10.593302616562786        2.4524013127730204        13.982116802613751     
 O    10.874979735366253        1.5535685336237488        1.5535685336237488     
 H    11.816915170590253        1.5535685336237488        1.5535685336237488     
 H    10.593302616562786        2.4524013127730204        1.5535685336237488     
 O    10.874979735366253        1.5535685336237488        4.6607056008712497     
 H    11.816915170590253        1.5535685336237488        4.6607056008712497     
 H    10.593302616562786        2.4524013127730204        4.6607056008712497     
 O    10.874979735366253        4.6607056008712497        7.7678426681187513     
 H    11.816915170590253        4.6607056008712497        7.7678426681187513     
 H    10.593302616562786        5.5595383800205216        7.7678426681187513     
 O    10.874979735366253        4.6607056008712497        10.874979735366253     
 H    11.816915170590253        4.6607056008712497        10.874979735366253     
 H    10.593302616562786        5.5595383800205216        10.874979735366253     
 O    10.874979735366253        4.6607056008712497        13.982116802613751     
 H    11.816915170590253        4.6607056008712497        13.982116802613751     
 H    10.593302616562786        5.5595383800205216        13.982116802613751     
 O    10.874979735366253        4.6607056008712497        1.5535685336237488     
 H    11.816915170590253        4.6607056008712497        1.5535685336237488     
 H    10.593302616562786        5.5595383800205216        1.5535685336237488     
 O    10.874979735366253        4.6607056008712497        4.6607056008712497     
 H    11.816915170590253        4.6607056008712497        4.6607056008712497     
 H    10.593302616562786        5.5595383800205216        4.6607056008712497     
 O    13.982116802613751        7.7678426681187513        7.7678426681187513     
 H    14.924052237837751        7.7678426681187513        7.7678426681187513     
 H    13.700439683810284        8.6666754472680232        7.7678426681187513     
 O    13.982116802613751        7.7678426681187513        10.874979735366253     
 H    14.924052237837751        7.7678426681187513        10.874979735366253     
 H    13.700439683810284        8.6666754472680232        10.874979735366253     
 O    13.982116802613751        7.7678426681187513        13.982116802613751     
 H    14.924052237837751        7.7678426681187513        13.982116802613751     
 H    13.700439683810284        8.6666754472680232        13.982116802613751     
 O    13.982116802613751        7.7678426681187513        1.5535685336237488     
 H    14.924052237837751        7.7678426681187513        1.5535685336237488     
 H    13.700439683810284        8.6666754472680232        1.5535685336237488     
 O    13.982116802613751        7.7678426681187513        4.6607056008712497     
 H    14.924052237837751        7.7678426681187513        4.6607056008712497     
 H    13.700439683810284        8.6666754472680232        4.6607056008712497     
 O    13.982116802613751        10.874979735366253        7.7678426681187513     
 H    14.924052237837751        10.874979735366253        7.7678426681187513     
 H    13.700439683810284        11.773812514515525        7.7678426681187513     
 O    13.982116802613751        10.874979735366253        10.874979735366253     
 H    14.924052237837751        10.874979735366253        10.874979735366253     
 H    13.700439683810284        11.773812514515525        10.874979735366253     
 O    13.982116802613751        10.874979735366253        13.982116802613751     
 H    14.924052237837751        10.874979735366253        13.982116802613751     
 H    13.700439683810284        11.773812514515525        13.982116802613751     
 O    13.982116802613751        10.874979735366253        1.5535685336237488     
 H    14.924052237837751        10.874979735366253        1.5535685336237488     
 H    13.700439683810284        11.773812514515525        1.5535685336237488     
 O    13.982116802613751        10.874979735366253        4.6607056008712497     
 H    14.924052237837751        10.874979735366253        4.6607056008712497     
 H    13.700439683810284        11.773812514515525        4.6607056008712497     
 O    13.982116802613751        13.982116802613751        7.7678426681187513     
 H    14.924052237837751        13.982116802613751        7.7678426681187513     
 H    13.700439683810284        14.880949581763023        7.7678426681187513     
 O    13.982116802613751        13.982116802613751        10.874979735366253     
 H    14.924052237837751        13.982116802613751        10.874979735366253     
 H    13.700439683810284        14.880949581763023        10.874979735366253     
 O    13.982116802613751        13.982116802613751        13.982116802613751     
 H    14.924052237837751        13.982116802613751        13.982116802613751     
 H    13.700439683810284        14.880949581763023        13.982116802613751     
 O    13.982116802613751        13.982116802613751        1.5535685336237488     
 H    14.924052237837751        13.982116802613751        1.5535685336237488     
 H    13.700439683810284        14.880949581763023        1.5535685336237488     
 O    13.982116802613751        13.982116802613751        4.6607056008712497     
 H    14.924052237837751        13.982116802613751        4.6607056008712497     
 H    13.700439683810284        14.880949581763023        4.6607056008712497     
 O    13.982116802613751        1.5535685336237488        7.7678426681187513     
 H    14.924052237837751        1.5535685336237488        7.7678426681187513     
 H    13.700439683810284        2.4524013127730204        7.7678426681187513     
 O    13.982116802613751        1.5535685336237488        10.874979735366253     
 H    14.924052237837751        1.5535685336237488        10.874979735366253     
 H    13.700439683810284        2.4524013127730204        10.874979735366253     
 O    13.982116802613751        1.5535685336237488        13.982116802613751     
 H    14.924052237837751        1.5535685336237488        13.982116802613751     
 H    13.700439683810284        2.4524013127730204        13.982116802613751     
 O    13.982116802613751        1.5535685336237488        1.5535685336237488     
 H    14.924052237837751        1.5535685336237488        1.5535685336237488     
 H    13.700439683810284        2.4524013127730204        1.5535685336237488     
 O    13.982116802613751        1.5535685336237488        4.6607056008712497     
 H    14.924052237837751        1.5535685336237488        4.6607056008712497     
 H    13.700439683810284        2.4524013127730204        4.6607056008712497     
 O    13.982116802613751        4.6607056008712497        7.7678426681187513     
 H    14.924052237837751        4.6607056008712497        7.7678426681187513     
 H    13.700439683810284        5.5595383800205216        7.7678426681187513     
 O    13.982116802613751        4.6607056008712497        10.874979735366253     
 H    14.924052237837751        4.6607056008712497        10.874979735366253     
 H    13.700439683810284        5.5595383800205216        10.874979735366253     
 O    13.982116802613751        4.6607056008712497        13.982116802613751     
 H    14.924052237837751        4.6607056008712497        13.982116802613751     
 H    13.700439683810284        5.5595383800205216        13.982116802613751     
 O    13.982116802613751        4.6607056008712497        1.5535685336237488     
 H    14.924052237837751        4.6607056008712497        1.5535685336237488     
 H    13.700439683810284        5.5595383800205216        1.5535685336237488     
 O    13.982116802613751        4.6607056008712497        4.6607056008712497     
 H    14.924052237837751        4.6607056008712497        4.6607056008712497     
 H    13.700439683810284        5.5595383800205216        4.6607056008712497     
 O    1.5535685336237488        7.7678426681187513        7.7678426681187513     
 H    2.4955039688477494        7.7678426681187513        7.7678426681187513     
 H    1.2718914148202825        8.6666754472680232        7.7678426681187513     
 O    1.5535685336237488        7.7678426681187513        10.874979735366253     
 H    2.4955039688477494        7.7678426681187513        10.874979735366253     
 H    1.2718914148202825        8.6666754472680232        10.874979735366253     
 O    1.5535685336237488        7.7678426681187513        13.982116802613751     
 H    2.4955039688477494        7.7678426681187513        13.982116802613751     
 H    1.2718914148202825        8.6666754472680232        13.982116802613751     
 O    1.5535685336237488        7.7678426681187513        1.5535685336237488     
 H    2.4955039688477494        7.7678426681187513        1.5535685336237488     
 H    1.2718914148202825        8.6666754472680232        1.5535685336237488     
 O    1.5535685336237488        7.7678426681187513        4.6607056008712497     
 H    2.4955039688477494        7.7678426681187513        4.6607056008712497     
 H    1.2718914148202825        8.6666754472680232        4.6607056008712497     
 O    1.5535685336237488        10.874979735366253        7.7678426681187513     
 H    2.4955039688477494        10.874979735366253        7.7678426681187513     
 H    1.2718914148202825        11.773812514515525        7.7678426681187513     
 O    1.5535685336237488        10.874979735366253        10.874979735366253     
 H    2.4955039688477494        10.874979735366253        10.874979735366253     
 H    1.2718914148202825        11.773812514515525        10.874979735366253     
 O    1.5535685336237488        10.874979735366253        13.982116802613751     
 H    2.4955039688477494        10.874979735366253        13.982116802613751     
 H    1.2718914148202825        11.773812514515525        13.982116802613751     
 O    1.5535685336237488        10.874979735366253        1.5535685336237488     
 H    2.4955039688477494        10.874979735366253        1.5535685336237488     
 H    1.2718914148202825        11.773812514515525        1.5535685336237488     
 O    1.5535685336237488        10.874979735366253        4.6607056008712497     
 H    2.4955039688477494        10.874979735366253        4.6607056008712497     
 H    1.2718914148202825        11.773812514515525        4.6607056008712497     
 O    1.5535685336237488        13.982116802613751        7.7678426681187513     
 H    2.4955039688477494        13.982116802613751        7.7678426681187513     
 H    1.2718914148202825        14.880949581763023        7.7678426681187513     
 O    1.5535685336237488        13.982116802613751        10.874979735366253     
 H    2.4955039688477494        13.982116802613751        10.874979735366253     
 H    1.2718914148202825        14.880949581763023        10.874979735366253     
 O    1.5535685336237488        13.982116802613751        13.982116802613751     
 H    2.4955039688477494        13.982116802613751        13.982116802613751     
 H    1.2718914148202825        14.880949581763023        13.982116802613751     
 O    1.5535685336237488        13.982116802613751        1.5535685336237488     
 H    2.4955039688477494        13.982116802613751        1.5535685336237488     
 H    1.2718914148202825        14.880949581763023        1.5535685336237488     
 O    1.5535685336237488        13.982116802613751        4.6607056008712497     
 H    2.4955039688477494        13.982116802613751        4.6607056008712497     
 H    1.2718914148202825        14.880949581763023        4.6607056008712497     
 O    1.5535685336237488        1.5535685336237488        7.7678426681187513     
 H    2.4955039688477494        1.5535685336237488        7.7678426681187513     
 H    1.2718914148202825        2.4524013127730204        7.7678426681187513     
 O    1.5535685336237488        1.5535685336237488        10.874979735366253     
 H    2.4955039688477494        1.5535685336237488        10.874979735366253     
 H    1.2718914148202825        2.4524013127730204        10.874979735366253     
 O    1.5535685336237488        1.5535685336237488        13.982116802613751     
 H    2.4955039688477494        1.5535685336237488        13.982116802613751     
 H    1.2718914148202825        2.4524013127730204        13.982116802613751     
 O    1.5535685336237488        1.5535685336237488        1.5535685336237488     
 H    2.4955039688477494        1.5535685336237488        1.5535685336237488     
 H    1.2718914148202825        2.4524013127730204        1.5535685336237488     
 O    1.5535685336237488        1.5535685336237488        4.6607056008712497     
 H    2.4955039688477494        1.5535685336237488        4.6607056008712497     
 H    1.2718914148202825        2.4524013127730204        4.6607056008712497     
 O    1.5535685336237488        4.6607056008712497        7.7678426681187513     
 H    2.4955039688477494        4.6607056008712497        7.7678426681187513     
 H    1.2718914148202825        5.5595383800205216        7.7678426681187513     
 O    1.5535685336237488        4.6607056008712497        10.874979735366253     
 H    2.4955039688477494        4.6607056008712497        10.874979735366253     
 H    1.2718914148202825        5.5595383800205216        10.874979735366253     
 O    1.5535685336237488        4.6607056008712497        13.982116802613751     
 H    2.4955039688477494        4.6607056008712497        13.982116802613751     
 H    1.2718914148202825        5.5595383800205216        13.982116802613751     
 O    1.5535685336237488        4.6607056008712497        1.5535685336237488     
 H    2.4955039688477494        4.6607056008712497        1.5535685336237488     
 H    1.2718914148202825        5.5595383800205216        1.5535685336237488     
 O    1.5535685336237488        4.6607056008712497        4.6607056008712497     
 H    2.4955039688477494        4.6607056008712497        4.6607056008712497     
 H    1.2718914148202825        5.5595383800205216        4.6607056008712497     
 O    4.6607056008712497        7.7678426681187513        7.7678426681187513     
 H    5.6026410360952505        7.7678426681187513        7.7678426681187513     
 H    4.3790284820677838        8.6666754472680232        7.7678426681187513     
 O    4.6607056008712497        7.7678426681187513        10.874979735366253     
 H    5.6026410360952505        7.7678426681187513        10.874979735366253     
 H    4.3790284820677838        8.6666754472680232        10.874979735366253     
 O    4.6607056008712497        7.7678426681187513        13.982116802613751     
 H    5.6026410360952505        7.7678426681187513        13.982116802613751     
 H    4.3790284820677838        8.6666754472680232        13.982116802613751     
 O    4.6607056008712497        7.7678426681187513        1.5535685336237488     
 H    5.6026410360952505        7.7678426681187513        1.5535685336237488     
 H    4.3790284820677838        8.6666754472680232        1.5535685336237488     
 O    4.6607056008712497        7.7678426681187513        4.6607056008712497     
 H    5.6026410360952505        7.7678426681187513        4.6607056008712497     
 H    4.3790284820677838        8.6666754472680232        4.6607056008712497     
 O    4.6607056008712497        10.874979735366253        7.7678426681187513     
 H    5.6026410360952505        10.874979735366253        7.7678426681187513     
 H    4.3790284820677838        11.773812514515525        7.7678426681187513     
 O    4.6607056008712497        10.874979735366253        10.874979735366253     
 H    5.6026410360952505        10.874979735366253        10.874979735366253     
 H    4.3790284820677838        11.773812514515525        10.874979735366253     
 O    4.6607056008712497        10.874979735366253        13.982116802613751     
 H    5.6026410360952505        10.874979735366253        13.982116802613751     
 H    4.3790284820677838        11.773812514515525        13.982116802613751     
 O    4.6607056008712497        10.874979735366253        1.5535685336237488     
 H    5.6026410360952505        10.874979735366253        1.5535685336237488     
 H    4.3790284820677838        11.773812514515525        1.5535685336237488     
 O    4.6607056008712497        10.874979735366253        4.6607056008712497     
 H    5.6026410360952505        10.874979735366253        4.6607056008712497     
 H    4.3790284820677838        11.773812514515525        4.6607056008712497     
 O    4.6607056008712497        13.982116802613751        7.7678426681187513     
 H    5.6026410360952505        13.982116802613751        7.7678426681187513     
 H    4.3790284820677838        14.880949581763023        7.7678426681187513     
 O    4.6607056008712497        13.982116802613751        10.874979735366253     
 H    5.6026410360952505        13.982116802613751        10.874979735366253     
 H    4.3790284820677838        14.880949581763023        10.874979735366253     
 O    4.6607056008712497        13.982116802613751        13.982116802613751     
 H    5.6026410360952505        13.982116802613751        13.982116802613751     
 H    4.3790284820677838        14.880949581763023        13.982116802613751     
 O    4.6607056008712497        13.982116802613751        1.5535685336237488     
 H    5.6026410360952505        13.982116802613751        1.5535685336237488     
 H    4.3790284820677838        14.880949581763023        1.5535685336237488     
 O    4.6607056008712497        13.982116802613751        4.6607056008712497     
 H    5.6026410360952505        13.982116802613751        4.6607056008712497     
 H    4.3790284820677838        14.880949581763023        4.6607056008712497     
 O    4.6607056008712497        1.5535685336237488        7.7678426681187513     
 H    5.6026410360952505        1.5535685336237488        7.7678426681187513     
 H    4.3790284820677838        2.4524013127730204        7.7678426681187513     
 O    4.6607056008712497        1.5535685336237488        10.874979735366253     
 H    5.6026410360952505        1.5535685336237488        10.874979735366253     
 H    4.3790284820677838        2.4524013127730204        10.874979735366253     
 O    4.6607056008712497        1.5535685336237488        13.982116802613751     
 H    5.6026410360952505        1.5535685336237488        13.982116802613751     
 H    4.3790284820677838        2.4524013127730204        13.982116802613751     
 O    4.6607056008712497        1.5535685336237488        1.5535685336237488     
 H    5.6026410360952505        1.5535685336237488        1.5535685336237488     
 H    4.3790284820677838        2.4524013127730204        1.5535685336237488     
 O    4.6607056008712497        1.5535685336237488        4.6607056008712497     
 H    5.6026410360952505        1.5535685336237488        4.6607056008712497     
 H    4.3790284820677838        2.4524013127730204        4.6607056008712497     
 O    4.6607056008712497        4.6607056008712497        7.7678426681187513     
 H    5.6026410360952505        4.6607056008712497        7.7678426681187513     
 H    4.3790284820677838        5.5595383800205216        7.7678426681187513     
 O    4.6607056008712497        4.6607056008712497        10.874979735366253     
 H    5.6026410360952505        4.6607056008712497        10.874979735366253     
 H    4.3790284820677838        5.5595383800205216        10.874979735366253     
 O    4.6607056008712497        4.6607056008712497        13.982116802613751     
 H    5.6026410360952505        4.6607056008712497        13.982116802613751     
 H    4.3790284820677838        5.5595383800205216        13.982116802613751     
 O    4.6607056008712497        4.6607056008712497        1.5535685336237488     
 H    5.6026410360952505        4.6607056008712497        1.5535685336237488     
 H    4.3790284820677838        5.5595383800205216        1.5535685336237488     
 O    4.6607056008712497        4.6607056008712497        4.6607056008712497     
 H    5.6026410360952505        4.6607056008712497        4.6607056008712497     
 H    4.3790284820677838        5.5595383800205216        4.6607056008712497     
